version 2
run Eight-0-20091217-15:09:15-32029
attr configname Eight
attr datetime 20091217-15:09:15
attr experiment Eight
attr inifile omnetpp.ini
attr iterationvars ""
attr iterationvars2 $repetition=0
attr measurement ""
attr network sim
attr processid 32029
attr repetition 0
attr replication #0
attr resultdir results
attr runnumber 0
attr seedset 0

scalar sim.host[0].batteryStats 	"nominal (mW-s)" 	20000
scalar sim.host[0].batteryStats 	"total (mW-s)" 	4000
scalar sim.host[0].batteryStats 	"lifetime(s) (-1 == non-failed)" 	-1
scalar sim.host[0].batteryStats 	"num devices" 	1
scalar sim.host[0].batteryStats 	"physical layer" 	0
scalar sim.host[0].batteryStats 	"device total (mWs)" 	4000
scalar sim.host[0].batteryStats 	account 	0
scalar sim.host[0].batteryStats 	"energy (mWs)" 	0
scalar sim.host[0].batteryStats 	"time (s)" 	0
scalar sim.host[0].batteryStats 	account 	1
scalar sim.host[0].batteryStats 	"energy (mWs)" 	3999.3616
scalar sim.host[0].batteryStats 	"time (s)" 	499.9202
scalar sim.host[0].batteryStats 	account 	2
scalar sim.host[0].batteryStats 	"energy (mWs)" 	0.6384
scalar sim.host[0].batteryStats 	"time (s)" 	0.0798
scalar sim.host[0].batteryStats 	account 	3
scalar sim.host[0].batteryStats 	"energy (mWs)" 	0
scalar sim.host[0].batteryStats 	"time (s)" 	0
scalar sim.host[0].batteryStats 	account 	4
scalar sim.host[0].batteryStats 	"energy (mWs)" 	0
scalar sim.host[0].batteryStats 	"time (s)" 	0
scalar sim.host[0].appl 	"broadcast queued" 	7
scalar sim.host[0].appl 	"replies sent" 	48
scalar sim.host[0].appl 	"replies received" 	37
scalar sim.host[1].batteryStats 	"nominal (mW-s)" 	20000
scalar sim.host[1].batteryStats 	"total (mW-s)" 	4000
scalar sim.host[1].batteryStats 	"lifetime(s) (-1 == non-failed)" 	-1
scalar sim.host[1].batteryStats 	"num devices" 	1
scalar sim.host[1].batteryStats 	"physical layer" 	0
scalar sim.host[1].batteryStats 	"device total (mWs)" 	4000
scalar sim.host[1].batteryStats 	account 	0
scalar sim.host[1].batteryStats 	"energy (mWs)" 	0
scalar sim.host[1].batteryStats 	"time (s)" 	0
scalar sim.host[1].batteryStats 	account 	1
scalar sim.host[1].batteryStats 	"energy (mWs)" 	3999.466304
scalar sim.host[1].batteryStats 	"time (s)" 	499.933288
scalar sim.host[1].batteryStats 	account 	2
scalar sim.host[1].batteryStats 	"energy (mWs)" 	0.533696
scalar sim.host[1].batteryStats 	"time (s)" 	0.066712
scalar sim.host[1].batteryStats 	account 	3
scalar sim.host[1].batteryStats 	"energy (mWs)" 	0
scalar sim.host[1].batteryStats 	"time (s)" 	0
scalar sim.host[1].batteryStats 	account 	4
scalar sim.host[1].batteryStats 	"energy (mWs)" 	0
scalar sim.host[1].batteryStats 	"time (s)" 	0
scalar sim.host[1].appl 	"broadcast queued" 	7
scalar sim.host[1].appl 	"replies sent" 	31
scalar sim.host[1].appl 	"replies received" 	31
scalar sim.host[2].batteryStats 	"nominal (mW-s)" 	20000
scalar sim.host[2].batteryStats 	"total (mW-s)" 	4000
scalar sim.host[2].batteryStats 	"lifetime(s) (-1 == non-failed)" 	-1
scalar sim.host[2].batteryStats 	"num devices" 	1
scalar sim.host[2].batteryStats 	"physical layer" 	0
scalar sim.host[2].batteryStats 	"device total (mWs)" 	4000
scalar sim.host[2].batteryStats 	account 	0
scalar sim.host[2].batteryStats 	"energy (mWs)" 	0
scalar sim.host[2].batteryStats 	"time (s)" 	0
scalar sim.host[2].batteryStats 	account 	1
scalar sim.host[2].batteryStats 	"energy (mWs)" 	3999.565504
scalar sim.host[2].batteryStats 	"time (s)" 	499.945688
scalar sim.host[2].batteryStats 	account 	2
scalar sim.host[2].batteryStats 	"energy (mWs)" 	0.434496
scalar sim.host[2].batteryStats 	"time (s)" 	0.054312
scalar sim.host[2].batteryStats 	account 	3
scalar sim.host[2].batteryStats 	"energy (mWs)" 	0
scalar sim.host[2].batteryStats 	"time (s)" 	0
scalar sim.host[2].batteryStats 	account 	4
scalar sim.host[2].batteryStats 	"energy (mWs)" 	0
scalar sim.host[2].batteryStats 	"time (s)" 	0
scalar sim.host[2].appl 	"broadcast queued" 	7
scalar sim.host[2].appl 	"replies sent" 	28
scalar sim.host[2].appl 	"replies received" 	27
scalar sim.host[3].batteryStats 	"nominal (mW-s)" 	20000
scalar sim.host[3].batteryStats 	"total (mW-s)" 	4000
scalar sim.host[3].batteryStats 	"lifetime(s) (-1 == non-failed)" 	-1
scalar sim.host[3].batteryStats 	"num devices" 	1
scalar sim.host[3].batteryStats 	"physical layer" 	0
scalar sim.host[3].batteryStats 	"device total (mWs)" 	4000
scalar sim.host[3].batteryStats 	account 	0
scalar sim.host[3].batteryStats 	"energy (mWs)" 	0
scalar sim.host[3].batteryStats 	"time (s)" 	0
scalar sim.host[3].batteryStats 	account 	1
scalar sim.host[3].batteryStats 	"energy (mWs)" 	3999.218496
scalar sim.host[3].batteryStats 	"time (s)" 	499.902312
scalar sim.host[3].batteryStats 	account 	2
scalar sim.host[3].batteryStats 	"energy (mWs)" 	0.781504
scalar sim.host[3].batteryStats 	"time (s)" 	0.097688
scalar sim.host[3].batteryStats 	account 	3
scalar sim.host[3].batteryStats 	"energy (mWs)" 	0
scalar sim.host[3].batteryStats 	"time (s)" 	0
scalar sim.host[3].batteryStats 	account 	4
scalar sim.host[3].batteryStats 	"energy (mWs)" 	0
scalar sim.host[3].batteryStats 	"time (s)" 	0
scalar sim.host[3].appl 	"broadcast queued" 	7
scalar sim.host[3].appl 	"replies sent" 	51
scalar sim.host[3].appl 	"replies received" 	49
scalar sim.host[4].batteryStats 	"nominal (mW-s)" 	20000
scalar sim.host[4].batteryStats 	"total (mW-s)" 	4000
scalar sim.host[4].batteryStats 	"lifetime(s) (-1 == non-failed)" 	-1
scalar sim.host[4].batteryStats 	"num devices" 	1
scalar sim.host[4].batteryStats 	"physical layer" 	0
scalar sim.host[4].batteryStats 	"device total (mWs)" 	4000
scalar sim.host[4].batteryStats 	account 	0
scalar sim.host[4].batteryStats 	"energy (mWs)" 	0
scalar sim.host[4].batteryStats 	"time (s)" 	0
scalar sim.host[4].batteryStats 	account 	1
scalar sim.host[4].batteryStats 	"energy (mWs)" 	3999.266432
scalar sim.host[4].batteryStats 	"time (s)" 	499.908304
scalar sim.host[4].batteryStats 	account 	2
scalar sim.host[4].batteryStats 	"energy (mWs)" 	0.733568
scalar sim.host[4].batteryStats 	"time (s)" 	0.091696
scalar sim.host[4].batteryStats 	account 	3
scalar sim.host[4].batteryStats 	"energy (mWs)" 	0
scalar sim.host[4].batteryStats 	"time (s)" 	0
scalar sim.host[4].batteryStats 	account 	4
scalar sim.host[4].batteryStats 	"energy (mWs)" 	0
scalar sim.host[4].batteryStats 	"time (s)" 	0
scalar sim.host[4].appl 	"broadcast queued" 	7
scalar sim.host[4].appl 	"replies sent" 	49
scalar sim.host[4].appl 	"replies received" 	50
scalar sim.host[5].batteryStats 	"nominal (mW-s)" 	20000
scalar sim.host[5].batteryStats 	"total (mW-s)" 	4000
scalar sim.host[5].batteryStats 	"lifetime(s) (-1 == non-failed)" 	-1
scalar sim.host[5].batteryStats 	"num devices" 	1
scalar sim.host[5].batteryStats 	"physical layer" 	0
scalar sim.host[5].batteryStats 	"device total (mWs)" 	4000
scalar sim.host[5].batteryStats 	account 	0
scalar sim.host[5].batteryStats 	"energy (mWs)" 	0
scalar sim.host[5].batteryStats 	"time (s)" 	0
scalar sim.host[5].batteryStats 	account 	1
scalar sim.host[5].batteryStats 	"energy (mWs)" 	3999.120512
scalar sim.host[5].batteryStats 	"time (s)" 	499.890064
scalar sim.host[5].batteryStats 	account 	2
scalar sim.host[5].batteryStats 	"energy (mWs)" 	0.879488
scalar sim.host[5].batteryStats 	"time (s)" 	0.109936
scalar sim.host[5].batteryStats 	account 	3
scalar sim.host[5].batteryStats 	"energy (mWs)" 	0
scalar sim.host[5].batteryStats 	"time (s)" 	0
scalar sim.host[5].batteryStats 	account 	4
scalar sim.host[5].batteryStats 	"energy (mWs)" 	0
scalar sim.host[5].batteryStats 	"time (s)" 	0
scalar sim.host[5].appl 	"broadcast queued" 	7
scalar sim.host[5].appl 	"replies sent" 	58
scalar sim.host[5].appl 	"replies received" 	63
scalar sim.host[6].batteryStats 	"nominal (mW-s)" 	20000
scalar sim.host[6].batteryStats 	"total (mW-s)" 	4000
scalar sim.host[6].batteryStats 	"lifetime(s) (-1 == non-failed)" 	-1
scalar sim.host[6].batteryStats 	"num devices" 	1
scalar sim.host[6].batteryStats 	"physical layer" 	0
scalar sim.host[6].batteryStats 	"device total (mWs)" 	4000
scalar sim.host[6].batteryStats 	account 	0
scalar sim.host[6].batteryStats 	"energy (mWs)" 	0
scalar sim.host[6].batteryStats 	"time (s)" 	0
scalar sim.host[6].batteryStats 	account 	1
scalar sim.host[6].batteryStats 	"energy (mWs)" 	3999.867968
scalar sim.host[6].batteryStats 	"time (s)" 	499.983496
scalar sim.host[6].batteryStats 	account 	2
scalar sim.host[6].batteryStats 	"energy (mWs)" 	0.132032
scalar sim.host[6].batteryStats 	"time (s)" 	0.016504
scalar sim.host[6].batteryStats 	account 	3
scalar sim.host[6].batteryStats 	"energy (mWs)" 	0
scalar sim.host[6].batteryStats 	"time (s)" 	0
scalar sim.host[6].batteryStats 	account 	4
scalar sim.host[6].batteryStats 	"energy (mWs)" 	0
scalar sim.host[6].batteryStats 	"time (s)" 	0
scalar sim.host[6].appl 	"broadcast queued" 	7
scalar sim.host[6].appl 	"replies sent" 	6
scalar sim.host[6].appl 	"replies received" 	7
scalar sim.host[7].batteryStats 	"nominal (mW-s)" 	20000
scalar sim.host[7].batteryStats 	"total (mW-s)" 	4000
scalar sim.host[7].batteryStats 	"lifetime(s) (-1 == non-failed)" 	-1
scalar sim.host[7].batteryStats 	"num devices" 	1
scalar sim.host[7].batteryStats 	"physical layer" 	0
scalar sim.host[7].batteryStats 	"device total (mWs)" 	4000
scalar sim.host[7].batteryStats 	account 	0
scalar sim.host[7].batteryStats 	"energy (mWs)" 	0
scalar sim.host[7].batteryStats 	"time (s)" 	0
scalar sim.host[7].batteryStats 	account 	1
scalar sim.host[7].batteryStats 	"energy (mWs)" 	3999.343872
scalar sim.host[7].batteryStats 	"time (s)" 	499.917984
scalar sim.host[7].batteryStats 	account 	2
scalar sim.host[7].batteryStats 	"energy (mWs)" 	0.656128
scalar sim.host[7].batteryStats 	"time (s)" 	0.082016
scalar sim.host[7].batteryStats 	account 	3
scalar sim.host[7].batteryStats 	"energy (mWs)" 	0
scalar sim.host[7].batteryStats 	"time (s)" 	0
scalar sim.host[7].batteryStats 	account 	4
scalar sim.host[7].batteryStats 	"energy (mWs)" 	0
scalar sim.host[7].batteryStats 	"time (s)" 	0
scalar sim.host[7].appl 	"broadcast queued" 	7
scalar sim.host[7].appl 	"replies sent" 	47
scalar sim.host[7].appl 	"replies received" 	42
scalar sim.host[8].batteryStats 	"nominal (mW-s)" 	20000
scalar sim.host[8].batteryStats 	"total (mW-s)" 	4000
scalar sim.host[8].batteryStats 	"lifetime(s) (-1 == non-failed)" 	-1
scalar sim.host[8].batteryStats 	"num devices" 	1
scalar sim.host[8].batteryStats 	"physical layer" 	0
scalar sim.host[8].batteryStats 	"device total (mWs)" 	4000
scalar sim.host[8].batteryStats 	account 	0
scalar sim.host[8].batteryStats 	"energy (mWs)" 	0
scalar sim.host[8].batteryStats 	"time (s)" 	0
scalar sim.host[8].batteryStats 	account 	1
scalar sim.host[8].batteryStats 	"energy (mWs)" 	3999.679872
scalar sim.host[8].batteryStats 	"time (s)" 	499.959984
scalar sim.host[8].batteryStats 	account 	2
scalar sim.host[8].batteryStats 	"energy (mWs)" 	0.320128
scalar sim.host[8].batteryStats 	"time (s)" 	0.040016
scalar sim.host[8].batteryStats 	account 	3
scalar sim.host[8].batteryStats 	"energy (mWs)" 	0
scalar sim.host[8].batteryStats 	"time (s)" 	0
scalar sim.host[8].batteryStats 	account 	4
scalar sim.host[8].batteryStats 	"energy (mWs)" 	0
scalar sim.host[8].batteryStats 	"time (s)" 	0
scalar sim.host[8].appl 	"broadcast queued" 	7
scalar sim.host[8].appl 	"replies sent" 	19
scalar sim.host[8].appl 	"replies received" 	21
scalar sim.host[9].batteryStats 	"nominal (mW-s)" 	20000
scalar sim.host[9].batteryStats 	"total (mW-s)" 	4000
scalar sim.host[9].batteryStats 	"lifetime(s) (-1 == non-failed)" 	-1
scalar sim.host[9].batteryStats 	"num devices" 	1
scalar sim.host[9].batteryStats 	"physical layer" 	0
scalar sim.host[9].batteryStats 	"device total (mWs)" 	4000
scalar sim.host[9].batteryStats 	account 	0
scalar sim.host[9].batteryStats 	"energy (mWs)" 	0
scalar sim.host[9].batteryStats 	"time (s)" 	0
scalar sim.host[9].batteryStats 	account 	1
scalar sim.host[9].batteryStats 	"energy (mWs)" 	3999.129728
scalar sim.host[9].batteryStats 	"time (s)" 	499.891216
scalar sim.host[9].batteryStats 	account 	2
scalar sim.host[9].batteryStats 	"energy (mWs)" 	0.870272
scalar sim.host[9].batteryStats 	"time (s)" 	0.108784
scalar sim.host[9].batteryStats 	account 	3
scalar sim.host[9].batteryStats 	"energy (mWs)" 	0
scalar sim.host[9].batteryStats 	"time (s)" 	0
scalar sim.host[9].batteryStats 	account 	4
scalar sim.host[9].batteryStats 	"energy (mWs)" 	0
scalar sim.host[9].batteryStats 	"time (s)" 	0
scalar sim.host[9].appl 	"broadcast queued" 	7
scalar sim.host[9].appl 	"replies sent" 	58
scalar sim.host[9].appl 	"replies received" 	52
scalar sim.host[10].batteryStats 	"nominal (mW-s)" 	20000
scalar sim.host[10].batteryStats 	"total (mW-s)" 	4000
scalar sim.host[10].batteryStats 	"lifetime(s) (-1 == non-failed)" 	-1
scalar sim.host[10].batteryStats 	"num devices" 	1
scalar sim.host[10].batteryStats 	"physical layer" 	0
scalar sim.host[10].batteryStats 	"device total (mWs)" 	4000
scalar sim.host[10].batteryStats 	account 	0
scalar sim.host[10].batteryStats 	"energy (mWs)" 	0
scalar sim.host[10].batteryStats 	"time (s)" 	0
scalar sim.host[10].batteryStats 	account 	1
scalar sim.host[10].batteryStats 	"energy (mWs)" 	3999.334784
scalar sim.host[10].batteryStats 	"time (s)" 	499.916848
scalar sim.host[10].batteryStats 	account 	2
scalar sim.host[10].batteryStats 	"energy (mWs)" 	0.665216
scalar sim.host[10].batteryStats 	"time (s)" 	0.083152
scalar sim.host[10].batteryStats 	account 	3
scalar sim.host[10].batteryStats 	"energy (mWs)" 	0
scalar sim.host[10].batteryStats 	"time (s)" 	0
scalar sim.host[10].batteryStats 	account 	4
scalar sim.host[10].batteryStats 	"energy (mWs)" 	0
scalar sim.host[10].batteryStats 	"time (s)" 	0
scalar sim.host[10].appl 	"broadcast queued" 	7
scalar sim.host[10].appl 	"replies sent" 	46
scalar sim.host[10].appl 	"replies received" 	45
scalar sim.host[11].batteryStats 	"nominal (mW-s)" 	20000
scalar sim.host[11].batteryStats 	"total (mW-s)" 	4000
scalar sim.host[11].batteryStats 	"lifetime(s) (-1 == non-failed)" 	-1
scalar sim.host[11].batteryStats 	"num devices" 	1
scalar sim.host[11].batteryStats 	"physical layer" 	0
scalar sim.host[11].batteryStats 	"device total (mWs)" 	4000
scalar sim.host[11].batteryStats 	account 	0
scalar sim.host[11].batteryStats 	"energy (mWs)" 	0
scalar sim.host[11].batteryStats 	"time (s)" 	0
scalar sim.host[11].batteryStats 	account 	1
scalar sim.host[11].batteryStats 	"energy (mWs)" 	3999.136128
scalar sim.host[11].batteryStats 	"time (s)" 	499.892016
scalar sim.host[11].batteryStats 	account 	2
scalar sim.host[11].batteryStats 	"energy (mWs)" 	0.863872
scalar sim.host[11].batteryStats 	"time (s)" 	0.107984
scalar sim.host[11].batteryStats 	account 	3
scalar sim.host[11].batteryStats 	"energy (mWs)" 	0
scalar sim.host[11].batteryStats 	"time (s)" 	0
scalar sim.host[11].batteryStats 	account 	4
scalar sim.host[11].batteryStats 	"energy (mWs)" 	0
scalar sim.host[11].batteryStats 	"time (s)" 	0
scalar sim.host[11].appl 	"broadcast queued" 	7
scalar sim.host[11].appl 	"replies sent" 	59
scalar sim.host[11].appl 	"replies received" 	59
scalar sim.host[12].batteryStats 	"nominal (mW-s)" 	20000
scalar sim.host[12].batteryStats 	"total (mW-s)" 	4000
scalar sim.host[12].batteryStats 	"lifetime(s) (-1 == non-failed)" 	-1
scalar sim.host[12].batteryStats 	"num devices" 	1
scalar sim.host[12].batteryStats 	"physical layer" 	0
scalar sim.host[12].batteryStats 	"device total (mWs)" 	4000
scalar sim.host[12].batteryStats 	account 	0
scalar sim.host[12].batteryStats 	"energy (mWs)" 	0
scalar sim.host[12].batteryStats 	"time (s)" 	0
scalar sim.host[12].batteryStats 	account 	1
scalar sim.host[12].batteryStats 	"energy (mWs)" 	3999.265472
scalar sim.host[12].batteryStats 	"time (s)" 	499.908184
scalar sim.host[12].batteryStats 	account 	2
scalar sim.host[12].batteryStats 	"energy (mWs)" 	0.734528
scalar sim.host[12].batteryStats 	"time (s)" 	0.091816
scalar sim.host[12].batteryStats 	account 	3
scalar sim.host[12].batteryStats 	"energy (mWs)" 	0
scalar sim.host[12].batteryStats 	"time (s)" 	0
scalar sim.host[12].batteryStats 	account 	4
scalar sim.host[12].batteryStats 	"energy (mWs)" 	0
scalar sim.host[12].batteryStats 	"time (s)" 	0
scalar sim.host[12].appl 	"broadcast queued" 	7
scalar sim.host[12].appl 	"replies sent" 	50
scalar sim.host[12].appl 	"replies received" 	54
scalar sim.host[13].batteryStats 	"nominal (mW-s)" 	20000
scalar sim.host[13].batteryStats 	"total (mW-s)" 	4000
scalar sim.host[13].batteryStats 	"lifetime(s) (-1 == non-failed)" 	-1
scalar sim.host[13].batteryStats 	"num devices" 	1
scalar sim.host[13].batteryStats 	"physical layer" 	0
scalar sim.host[13].batteryStats 	"device total (mWs)" 	4000
scalar sim.host[13].batteryStats 	account 	0
scalar sim.host[13].batteryStats 	"energy (mWs)" 	0
scalar sim.host[13].batteryStats 	"time (s)" 	0
scalar sim.host[13].batteryStats 	account 	1
scalar sim.host[13].batteryStats 	"energy (mWs)" 	3999.335104
scalar sim.host[13].batteryStats 	"time (s)" 	499.916888
scalar sim.host[13].batteryStats 	account 	2
scalar sim.host[13].batteryStats 	"energy (mWs)" 	0.664896
scalar sim.host[13].batteryStats 	"time (s)" 	0.083112
scalar sim.host[13].batteryStats 	account 	3
scalar sim.host[13].batteryStats 	"energy (mWs)" 	0
scalar sim.host[13].batteryStats 	"time (s)" 	0
scalar sim.host[13].batteryStats 	account 	4
scalar sim.host[13].batteryStats 	"energy (mWs)" 	0
scalar sim.host[13].batteryStats 	"time (s)" 	0
scalar sim.host[13].appl 	"broadcast queued" 	7
scalar sim.host[13].appl 	"replies sent" 	46
scalar sim.host[13].appl 	"replies received" 	39
scalar sim.host[14].batteryStats 	"nominal (mW-s)" 	20000
scalar sim.host[14].batteryStats 	"total (mW-s)" 	4000
scalar sim.host[14].batteryStats 	"lifetime(s) (-1 == non-failed)" 	-1
scalar sim.host[14].batteryStats 	"num devices" 	1
scalar sim.host[14].batteryStats 	"physical layer" 	0
scalar sim.host[14].batteryStats 	"device total (mWs)" 	4000
scalar sim.host[14].batteryStats 	account 	0
scalar sim.host[14].batteryStats 	"energy (mWs)" 	0
scalar sim.host[14].batteryStats 	"time (s)" 	0
scalar sim.host[14].batteryStats 	account 	1
scalar sim.host[14].batteryStats 	"energy (mWs)" 	3999.879488
scalar sim.host[14].batteryStats 	"time (s)" 	499.984936
scalar sim.host[14].batteryStats 	account 	2
scalar sim.host[14].batteryStats 	"energy (mWs)" 	0.120512
scalar sim.host[14].batteryStats 	"time (s)" 	0.015064
scalar sim.host[14].batteryStats 	account 	3
scalar sim.host[14].batteryStats 	"energy (mWs)" 	0
scalar sim.host[14].batteryStats 	"time (s)" 	0
scalar sim.host[14].batteryStats 	account 	4
scalar sim.host[14].batteryStats 	"energy (mWs)" 	0
scalar sim.host[14].batteryStats 	"time (s)" 	0
scalar sim.host[14].appl 	"broadcast queued" 	7
scalar sim.host[14].appl 	"replies sent" 	5
scalar sim.host[14].appl 	"replies received" 	7
scalar sim.host[15].batteryStats 	"nominal (mW-s)" 	20000
scalar sim.host[15].batteryStats 	"total (mW-s)" 	4000
scalar sim.host[15].batteryStats 	"lifetime(s) (-1 == non-failed)" 	-1
scalar sim.host[15].batteryStats 	"num devices" 	1
scalar sim.host[15].batteryStats 	"physical layer" 	0
scalar sim.host[15].batteryStats 	"device total (mWs)" 	4000
scalar sim.host[15].batteryStats 	account 	0
scalar sim.host[15].batteryStats 	"energy (mWs)" 	0
scalar sim.host[15].batteryStats 	"time (s)" 	0
scalar sim.host[15].batteryStats 	account 	1
scalar sim.host[15].batteryStats 	"energy (mWs)" 	3999.269312
scalar sim.host[15].batteryStats 	"time (s)" 	499.908664
scalar sim.host[15].batteryStats 	account 	2
scalar sim.host[15].batteryStats 	"energy (mWs)" 	0.730688
scalar sim.host[15].batteryStats 	"time (s)" 	0.091336
scalar sim.host[15].batteryStats 	account 	3
scalar sim.host[15].batteryStats 	"energy (mWs)" 	0
scalar sim.host[15].batteryStats 	"time (s)" 	0
scalar sim.host[15].batteryStats 	account 	4
scalar sim.host[15].batteryStats 	"energy (mWs)" 	0
scalar sim.host[15].batteryStats 	"time (s)" 	0
scalar sim.host[15].appl 	"broadcast queued" 	7
scalar sim.host[15].appl 	"replies sent" 	50
scalar sim.host[15].appl 	"replies received" 	46
scalar sim.host[16].batteryStats 	"nominal (mW-s)" 	20000
scalar sim.host[16].batteryStats 	"total (mW-s)" 	4000
scalar sim.host[16].batteryStats 	"lifetime(s) (-1 == non-failed)" 	-1
scalar sim.host[16].batteryStats 	"num devices" 	1
scalar sim.host[16].batteryStats 	"physical layer" 	0
scalar sim.host[16].batteryStats 	"device total (mWs)" 	4000
scalar sim.host[16].batteryStats 	account 	0
scalar sim.host[16].batteryStats 	"energy (mWs)" 	0
scalar sim.host[16].batteryStats 	"time (s)" 	0
scalar sim.host[16].batteryStats 	account 	1
scalar sim.host[16].batteryStats 	"energy (mWs)" 	3999.31968
scalar sim.host[16].batteryStats 	"time (s)" 	499.91496
scalar sim.host[16].batteryStats 	account 	2
scalar sim.host[16].batteryStats 	"energy (mWs)" 	0.68032
scalar sim.host[16].batteryStats 	"time (s)" 	0.08504
scalar sim.host[16].batteryStats 	account 	3
scalar sim.host[16].batteryStats 	"energy (mWs)" 	0
scalar sim.host[16].batteryStats 	"time (s)" 	0
scalar sim.host[16].batteryStats 	account 	4
scalar sim.host[16].batteryStats 	"energy (mWs)" 	0
scalar sim.host[16].batteryStats 	"time (s)" 	0
scalar sim.host[16].appl 	"broadcast queued" 	7
scalar sim.host[16].appl 	"replies sent" 	43
scalar sim.host[16].appl 	"replies received" 	44
scalar sim.host[17].batteryStats 	"nominal (mW-s)" 	20000
scalar sim.host[17].batteryStats 	"total (mW-s)" 	4000
scalar sim.host[17].batteryStats 	"lifetime(s) (-1 == non-failed)" 	-1
scalar sim.host[17].batteryStats 	"num devices" 	1
scalar sim.host[17].batteryStats 	"physical layer" 	0
scalar sim.host[17].batteryStats 	"device total (mWs)" 	4000
scalar sim.host[17].batteryStats 	account 	0
scalar sim.host[17].batteryStats 	"energy (mWs)" 	0
scalar sim.host[17].batteryStats 	"time (s)" 	0
scalar sim.host[17].batteryStats 	account 	1
scalar sim.host[17].batteryStats 	"energy (mWs)" 	3999.005248
scalar sim.host[17].batteryStats 	"time (s)" 	499.875656
scalar sim.host[17].batteryStats 	account 	2
scalar sim.host[17].batteryStats 	"energy (mWs)" 	0.994752
scalar sim.host[17].batteryStats 	"time (s)" 	0.124344
scalar sim.host[17].batteryStats 	account 	3
scalar sim.host[17].batteryStats 	"energy (mWs)" 	0
scalar sim.host[17].batteryStats 	"time (s)" 	0
scalar sim.host[17].batteryStats 	account 	4
scalar sim.host[17].batteryStats 	"energy (mWs)" 	0
scalar sim.host[17].batteryStats 	"time (s)" 	0
scalar sim.host[17].appl 	"broadcast queued" 	7
scalar sim.host[17].appl 	"replies sent" 	60
scalar sim.host[17].appl 	"replies received" 	59
scalar sim.host[18].batteryStats 	"nominal (mW-s)" 	20000
scalar sim.host[18].batteryStats 	"total (mW-s)" 	4000
scalar sim.host[18].batteryStats 	"lifetime(s) (-1 == non-failed)" 	-1
scalar sim.host[18].batteryStats 	"num devices" 	1
scalar sim.host[18].batteryStats 	"physical layer" 	0
scalar sim.host[18].batteryStats 	"device total (mWs)" 	4000
scalar sim.host[18].batteryStats 	account 	0
scalar sim.host[18].batteryStats 	"energy (mWs)" 	0
scalar sim.host[18].batteryStats 	"time (s)" 	0
scalar sim.host[18].batteryStats 	account 	1
scalar sim.host[18].batteryStats 	"energy (mWs)" 	3999.354944
scalar sim.host[18].batteryStats 	"time (s)" 	499.919368
scalar sim.host[18].batteryStats 	account 	2
scalar sim.host[18].batteryStats 	"energy (mWs)" 	0.645056
scalar sim.host[18].batteryStats 	"time (s)" 	0.080632
scalar sim.host[18].batteryStats 	account 	3
scalar sim.host[18].batteryStats 	"energy (mWs)" 	0
scalar sim.host[18].batteryStats 	"time (s)" 	0
scalar sim.host[18].batteryStats 	account 	4
scalar sim.host[18].batteryStats 	"energy (mWs)" 	0
scalar sim.host[18].batteryStats 	"time (s)" 	0
scalar sim.host[18].appl 	"broadcast queued" 	7
scalar sim.host[18].appl 	"replies sent" 	42
scalar sim.host[18].appl 	"replies received" 	44
scalar sim.host[19].batteryStats 	"nominal (mW-s)" 	20000
scalar sim.host[19].batteryStats 	"total (mW-s)" 	4000
scalar sim.host[19].batteryStats 	"lifetime(s) (-1 == non-failed)" 	-1
scalar sim.host[19].batteryStats 	"num devices" 	1
scalar sim.host[19].batteryStats 	"physical layer" 	0
scalar sim.host[19].batteryStats 	"device total (mWs)" 	4000
scalar sim.host[19].batteryStats 	account 	0
scalar sim.host[19].batteryStats 	"energy (mWs)" 	0
scalar sim.host[19].batteryStats 	"time (s)" 	0
scalar sim.host[19].batteryStats 	account 	1
scalar sim.host[19].batteryStats 	"energy (mWs)" 	3999.275136
scalar sim.host[19].batteryStats 	"time (s)" 	499.909392
scalar sim.host[19].batteryStats 	account 	2
scalar sim.host[19].batteryStats 	"energy (mWs)" 	0.724864
scalar sim.host[19].batteryStats 	"time (s)" 	0.090608
scalar sim.host[19].batteryStats 	account 	3
scalar sim.host[19].batteryStats 	"energy (mWs)" 	0
scalar sim.host[19].batteryStats 	"time (s)" 	0
scalar sim.host[19].batteryStats 	account 	4
scalar sim.host[19].batteryStats 	"energy (mWs)" 	0
scalar sim.host[19].batteryStats 	"time (s)" 	0
scalar sim.host[19].appl 	"broadcast queued" 	7
scalar sim.host[19].appl 	"replies sent" 	48
scalar sim.host[19].appl 	"replies received" 	46
