version 2
run Eight-0-20090820-14:53:43-18563
attr configname Eight
attr datetime 20090820-14:53:43
attr experiment Eight
attr inifile omnetpp.ini
attr iterationvars ""
attr iterationvars2 $repetition=0
attr measurement ""
attr network sim
attr processid 18563
attr repetition 0
attr replication #0
attr resultdir results
attr runnumber 0
attr seedset 0

scalar "sim.host[0].batteryStats" 	"nominal (mW-s)" 	20000
scalar "sim.host[0].batteryStats" 	"total (mW-s)" 	4000
scalar "sim.host[0].batteryStats" 	"lifetime(s) (-1 == non-failed)" 	-1
scalar "sim.host[0].batteryStats" 	"num devices" 	1
scalar "sim.host[0].batteryStats" 	"80211Nic" 	0
scalar "sim.host[0].batteryStats" 	"device total (mWs)" 	4000
scalar "sim.host[0].batteryStats" 	"account" 	0
scalar "sim.host[0].batteryStats" 	"energy (mWs)" 	0
scalar "sim.host[0].batteryStats" 	"time (s)" 	0
scalar "sim.host[0].batteryStats" 	"account" 	1
scalar "sim.host[0].batteryStats" 	"energy (mWs)" 	3993.232816
scalar "sim.host[0].batteryStats" 	"time (s)" 	499.154102
scalar "sim.host[0].batteryStats" 	"account" 	2
scalar "sim.host[0].batteryStats" 	"energy (mWs)" 	6.058064
scalar "sim.host[0].batteryStats" 	"time (s)" 	0.757258
scalar "sim.host[0].batteryStats" 	"account" 	3
scalar "sim.host[0].batteryStats" 	"energy (mWs)" 	0.70912
scalar "sim.host[0].batteryStats" 	"time (s)" 	0.08864
scalar "sim.host[0].appl" 	"broadcast queued" 	7
scalar "sim.host[0].appl" 	"replies sent" 	45
scalar "sim.host[0].appl" 	"replies received" 	46
scalar "sim.host[1].batteryStats" 	"nominal (mW-s)" 	20000
scalar "sim.host[1].batteryStats" 	"total (mW-s)" 	4000
scalar "sim.host[1].batteryStats" 	"lifetime(s) (-1 == non-failed)" 	-1
scalar "sim.host[1].batteryStats" 	"num devices" 	1
scalar "sim.host[1].batteryStats" 	"80211Nic" 	0
scalar "sim.host[1].batteryStats" 	"device total (mWs)" 	4000
scalar "sim.host[1].batteryStats" 	"account" 	0
scalar "sim.host[1].batteryStats" 	"energy (mWs)" 	0
scalar "sim.host[1].batteryStats" 	"time (s)" 	0
scalar "sim.host[1].batteryStats" 	"account" 	1
scalar "sim.host[1].batteryStats" 	"energy (mWs)" 	3991.765584
scalar "sim.host[1].batteryStats" 	"time (s)" 	498.970698
scalar "sim.host[1].batteryStats" 	"account" 	2
scalar "sim.host[1].batteryStats" 	"energy (mWs)" 	7.76856
scalar "sim.host[1].batteryStats" 	"time (s)" 	0.97107
scalar "sim.host[1].batteryStats" 	"account" 	3
scalar "sim.host[1].batteryStats" 	"energy (mWs)" 	0.465856
scalar "sim.host[1].batteryStats" 	"time (s)" 	0.058232
scalar "sim.host[1].appl" 	"broadcast queued" 	7
scalar "sim.host[1].appl" 	"replies sent" 	32
scalar "sim.host[1].appl" 	"replies received" 	25
scalar "sim.host[2].batteryStats" 	"nominal (mW-s)" 	20000
scalar "sim.host[2].batteryStats" 	"total (mW-s)" 	4000
scalar "sim.host[2].batteryStats" 	"lifetime(s) (-1 == non-failed)" 	-1
scalar "sim.host[2].batteryStats" 	"num devices" 	1
scalar "sim.host[2].batteryStats" 	"80211Nic" 	0
scalar "sim.host[2].batteryStats" 	"device total (mWs)" 	4000
scalar "sim.host[2].batteryStats" 	"account" 	0
scalar "sim.host[2].batteryStats" 	"energy (mWs)" 	0
scalar "sim.host[2].batteryStats" 	"time (s)" 	0
scalar "sim.host[2].batteryStats" 	"account" 	1
scalar "sim.host[2].batteryStats" 	"energy (mWs)" 	3988.66958401
scalar "sim.host[2].batteryStats" 	"time (s)" 	498.583698001
scalar "sim.host[2].batteryStats" 	"account" 	2
scalar "sim.host[2].batteryStats" 	"energy (mWs)" 	10.468335992
scalar "sim.host[2].batteryStats" 	"time (s)" 	1.308541999
scalar "sim.host[2].batteryStats" 	"account" 	3
scalar "sim.host[2].batteryStats" 	"energy (mWs)" 	0.862079999999
scalar "sim.host[2].batteryStats" 	"time (s)" 	0.10776
scalar "sim.host[2].appl" 	"broadcast queued" 	7
scalar "sim.host[2].appl" 	"replies sent" 	59
scalar "sim.host[2].appl" 	"replies received" 	60
scalar "sim.host[3].batteryStats" 	"nominal (mW-s)" 	20000
scalar "sim.host[3].batteryStats" 	"total (mW-s)" 	4000
scalar "sim.host[3].batteryStats" 	"lifetime(s) (-1 == non-failed)" 	-1
scalar "sim.host[3].batteryStats" 	"num devices" 	1
scalar "sim.host[3].batteryStats" 	"80211Nic" 	0
scalar "sim.host[3].batteryStats" 	"device total (mWs)" 	4000
scalar "sim.host[3].batteryStats" 	"account" 	0
scalar "sim.host[3].batteryStats" 	"energy (mWs)" 	0
scalar "sim.host[3].batteryStats" 	"time (s)" 	0
scalar "sim.host[3].batteryStats" 	"account" 	1
scalar "sim.host[3].batteryStats" 	"energy (mWs)" 	3988.076672
scalar "sim.host[3].batteryStats" 	"time (s)" 	498.509584
scalar "sim.host[3].batteryStats" 	"account" 	2
scalar "sim.host[3].batteryStats" 	"energy (mWs)" 	11.000832
scalar "sim.host[3].batteryStats" 	"time (s)" 	1.375104
scalar "sim.host[3].batteryStats" 	"account" 	3
scalar "sim.host[3].batteryStats" 	"energy (mWs)" 	0.922496
scalar "sim.host[3].batteryStats" 	"time (s)" 	0.115312
scalar "sim.host[3].appl" 	"broadcast queued" 	7
scalar "sim.host[3].appl" 	"replies sent" 	63
scalar "sim.host[3].appl" 	"replies received" 	67
scalar "sim.host[4].batteryStats" 	"nominal (mW-s)" 	20000
scalar "sim.host[4].batteryStats" 	"total (mW-s)" 	4000
scalar "sim.host[4].batteryStats" 	"lifetime(s) (-1 == non-failed)" 	-1
scalar "sim.host[4].batteryStats" 	"num devices" 	1
scalar "sim.host[4].batteryStats" 	"80211Nic" 	0
scalar "sim.host[4].batteryStats" 	"device total (mWs)" 	4000
scalar "sim.host[4].batteryStats" 	"account" 	0
scalar "sim.host[4].batteryStats" 	"energy (mWs)" 	0
scalar "sim.host[4].batteryStats" 	"time (s)" 	0
scalar "sim.host[4].batteryStats" 	"account" 	1
scalar "sim.host[4].batteryStats" 	"energy (mWs)" 	3989.768448
scalar "sim.host[4].batteryStats" 	"time (s)" 	498.721056
scalar "sim.host[4].batteryStats" 	"account" 	2
scalar "sim.host[4].batteryStats" 	"energy (mWs)" 	9.682624
scalar "sim.host[4].batteryStats" 	"time (s)" 	1.210328
scalar "sim.host[4].batteryStats" 	"account" 	3
scalar "sim.host[4].batteryStats" 	"energy (mWs)" 	0.548928
scalar "sim.host[4].batteryStats" 	"time (s)" 	0.068616
scalar "sim.host[4].appl" 	"broadcast queued" 	7
scalar "sim.host[4].appl" 	"replies sent" 	35
scalar "sim.host[4].appl" 	"replies received" 	34
scalar "sim.host[5].batteryStats" 	"nominal (mW-s)" 	20000
scalar "sim.host[5].batteryStats" 	"total (mW-s)" 	4000
scalar "sim.host[5].batteryStats" 	"lifetime(s) (-1 == non-failed)" 	-1
scalar "sim.host[5].batteryStats" 	"num devices" 	1
scalar "sim.host[5].batteryStats" 	"80211Nic" 	0
scalar "sim.host[5].batteryStats" 	"device total (mWs)" 	4000
scalar "sim.host[5].batteryStats" 	"account" 	0
scalar "sim.host[5].batteryStats" 	"energy (mWs)" 	0
scalar "sim.host[5].batteryStats" 	"time (s)" 	0
scalar "sim.host[5].batteryStats" 	"account" 	1
scalar "sim.host[5].batteryStats" 	"energy (mWs)" 	3990.40876799
scalar "sim.host[5].batteryStats" 	"time (s)" 	498.801095999
scalar "sim.host[5].batteryStats" 	"account" 	2
scalar "sim.host[5].batteryStats" 	"energy (mWs)" 	8.887296008
scalar "sim.host[5].batteryStats" 	"time (s)" 	1.110912001
scalar "sim.host[5].batteryStats" 	"account" 	3
scalar "sim.host[5].batteryStats" 	"energy (mWs)" 	0.703936
scalar "sim.host[5].batteryStats" 	"time (s)" 	0.087992
scalar "sim.host[5].appl" 	"broadcast queued" 	7
scalar "sim.host[5].appl" 	"replies sent" 	50
scalar "sim.host[5].appl" 	"replies received" 	45
scalar "sim.host[6].batteryStats" 	"nominal (mW-s)" 	20000
scalar "sim.host[6].batteryStats" 	"total (mW-s)" 	4000
scalar "sim.host[6].batteryStats" 	"lifetime(s) (-1 == non-failed)" 	-1
scalar "sim.host[6].batteryStats" 	"num devices" 	1
scalar "sim.host[6].batteryStats" 	"80211Nic" 	0
scalar "sim.host[6].batteryStats" 	"device total (mWs)" 	4000
scalar "sim.host[6].batteryStats" 	"account" 	0
scalar "sim.host[6].batteryStats" 	"energy (mWs)" 	0
scalar "sim.host[6].batteryStats" 	"time (s)" 	0
scalar "sim.host[6].batteryStats" 	"account" 	1
scalar "sim.host[6].batteryStats" 	"energy (mWs)" 	3994.517472
scalar "sim.host[6].batteryStats" 	"time (s)" 	499.314684
scalar "sim.host[6].batteryStats" 	"account" 	2
scalar "sim.host[6].batteryStats" 	"energy (mWs)" 	5.008672
scalar "sim.host[6].batteryStats" 	"time (s)" 	0.626084
scalar "sim.host[6].batteryStats" 	"account" 	3
scalar "sim.host[6].batteryStats" 	"energy (mWs)" 	0.473856
scalar "sim.host[6].batteryStats" 	"time (s)" 	0.059232
scalar "sim.host[6].appl" 	"broadcast queued" 	7
scalar "sim.host[6].appl" 	"replies sent" 	29
scalar "sim.host[6].appl" 	"replies received" 	30
scalar "sim.host[7].batteryStats" 	"nominal (mW-s)" 	20000
scalar "sim.host[7].batteryStats" 	"total (mW-s)" 	4000
scalar "sim.host[7].batteryStats" 	"lifetime(s) (-1 == non-failed)" 	-1
scalar "sim.host[7].batteryStats" 	"num devices" 	1
scalar "sim.host[7].batteryStats" 	"80211Nic" 	0
scalar "sim.host[7].batteryStats" 	"device total (mWs)" 	4000
scalar "sim.host[7].batteryStats" 	"account" 	0
scalar "sim.host[7].batteryStats" 	"energy (mWs)" 	0
scalar "sim.host[7].batteryStats" 	"time (s)" 	0
scalar "sim.host[7].batteryStats" 	"account" 	1
scalar "sim.host[7].batteryStats" 	"energy (mWs)" 	3991.102256
scalar "sim.host[7].batteryStats" 	"time (s)" 	498.887782
scalar "sim.host[7].batteryStats" 	"account" 	2
scalar "sim.host[7].batteryStats" 	"energy (mWs)" 	8.067408
scalar "sim.host[7].batteryStats" 	"time (s)" 	1.008426
scalar "sim.host[7].batteryStats" 	"account" 	3
scalar "sim.host[7].batteryStats" 	"energy (mWs)" 	0.830336
scalar "sim.host[7].batteryStats" 	"time (s)" 	0.103792
scalar "sim.host[7].appl" 	"broadcast queued" 	7
scalar "sim.host[7].appl" 	"replies sent" 	53
scalar "sim.host[7].appl" 	"replies received" 	56
scalar "sim.host[8].batteryStats" 	"nominal (mW-s)" 	20000
scalar "sim.host[8].batteryStats" 	"total (mW-s)" 	4000
scalar "sim.host[8].batteryStats" 	"lifetime(s) (-1 == non-failed)" 	-1
scalar "sim.host[8].batteryStats" 	"num devices" 	1
scalar "sim.host[8].batteryStats" 	"80211Nic" 	0
scalar "sim.host[8].batteryStats" 	"device total (mWs)" 	4000
scalar "sim.host[8].batteryStats" 	"account" 	0
scalar "sim.host[8].batteryStats" 	"energy (mWs)" 	0
scalar "sim.host[8].batteryStats" 	"time (s)" 	0
scalar "sim.host[8].batteryStats" 	"account" 	1
scalar "sim.host[8].batteryStats" 	"energy (mWs)" 	3992.21669323
scalar "sim.host[8].batteryStats" 	"time (s)" 	499.027086654
scalar "sim.host[8].batteryStats" 	"account" 	2
scalar "sim.host[8].batteryStats" 	"energy (mWs)" 	7.27367476703
scalar "sim.host[8].batteryStats" 	"time (s)" 	0.909209345879
scalar "sim.host[8].batteryStats" 	"account" 	3
scalar "sim.host[8].batteryStats" 	"energy (mWs)" 	0.509631999999
scalar "sim.host[8].batteryStats" 	"time (s)" 	0.0637039999999
scalar "sim.host[8].appl" 	"broadcast queued" 	7
scalar "sim.host[8].appl" 	"replies sent" 	32
scalar "sim.host[8].appl" 	"replies received" 	32
scalar "sim.host[9].batteryStats" 	"nominal (mW-s)" 	20000
scalar "sim.host[9].batteryStats" 	"total (mW-s)" 	4000
scalar "sim.host[9].batteryStats" 	"lifetime(s) (-1 == non-failed)" 	-1
scalar "sim.host[9].batteryStats" 	"num devices" 	1
scalar "sim.host[9].batteryStats" 	"80211Nic" 	0
scalar "sim.host[9].batteryStats" 	"device total (mWs)" 	4000
scalar "sim.host[9].batteryStats" 	"account" 	0
scalar "sim.host[9].batteryStats" 	"energy (mWs)" 	0
scalar "sim.host[9].batteryStats" 	"time (s)" 	0
scalar "sim.host[9].batteryStats" 	"account" 	1
scalar "sim.host[9].batteryStats" 	"energy (mWs)" 	3992.279024
scalar "sim.host[9].batteryStats" 	"time (s)" 	499.034878
scalar "sim.host[9].batteryStats" 	"account" 	2
scalar "sim.host[9].batteryStats" 	"energy (mWs)" 	7.278416
scalar "sim.host[9].batteryStats" 	"time (s)" 	0.909802
scalar "sim.host[9].batteryStats" 	"account" 	3
scalar "sim.host[9].batteryStats" 	"energy (mWs)" 	0.44256
scalar "sim.host[9].batteryStats" 	"time (s)" 	0.05532
scalar "sim.host[9].appl" 	"broadcast queued" 	7
scalar "sim.host[9].appl" 	"replies sent" 	28
scalar "sim.host[9].appl" 	"replies received" 	27
scalar "sim.host[10].batteryStats" 	"nominal (mW-s)" 	20000
scalar "sim.host[10].batteryStats" 	"total (mW-s)" 	4000
scalar "sim.host[10].batteryStats" 	"lifetime(s) (-1 == non-failed)" 	-1
scalar "sim.host[10].batteryStats" 	"num devices" 	1
scalar "sim.host[10].batteryStats" 	"80211Nic" 	0
scalar "sim.host[10].batteryStats" 	"device total (mWs)" 	4000
scalar "sim.host[10].batteryStats" 	"account" 	0
scalar "sim.host[10].batteryStats" 	"energy (mWs)" 	0
scalar "sim.host[10].batteryStats" 	"time (s)" 	0
scalar "sim.host[10].batteryStats" 	"account" 	1
scalar "sim.host[10].batteryStats" 	"energy (mWs)" 	3987.522224
scalar "sim.host[10].batteryStats" 	"time (s)" 	498.440278
scalar "sim.host[10].batteryStats" 	"account" 	2
scalar "sim.host[10].batteryStats" 	"energy (mWs)" 	11.726032
scalar "sim.host[10].batteryStats" 	"time (s)" 	1.465754
scalar "sim.host[10].batteryStats" 	"account" 	3
scalar "sim.host[10].batteryStats" 	"energy (mWs)" 	0.751744
scalar "sim.host[10].batteryStats" 	"time (s)" 	0.093968
scalar "sim.host[10].appl" 	"broadcast queued" 	7
scalar "sim.host[10].appl" 	"replies sent" 	52
scalar "sim.host[10].appl" 	"replies received" 	51
scalar "sim.host[11].batteryStats" 	"nominal (mW-s)" 	20000
scalar "sim.host[11].batteryStats" 	"total (mW-s)" 	4000
scalar "sim.host[11].batteryStats" 	"lifetime(s) (-1 == non-failed)" 	-1
scalar "sim.host[11].batteryStats" 	"num devices" 	1
scalar "sim.host[11].batteryStats" 	"80211Nic" 	0
scalar "sim.host[11].batteryStats" 	"device total (mWs)" 	4000
scalar "sim.host[11].batteryStats" 	"account" 	0
scalar "sim.host[11].batteryStats" 	"energy (mWs)" 	0
scalar "sim.host[11].batteryStats" 	"time (s)" 	0
scalar "sim.host[11].batteryStats" 	"account" 	1
scalar "sim.host[11].batteryStats" 	"energy (mWs)" 	3990.062992
scalar "sim.host[11].batteryStats" 	"time (s)" 	498.757874
scalar "sim.host[11].batteryStats" 	"account" 	2
scalar "sim.host[11].batteryStats" 	"energy (mWs)" 	9.122096
scalar "sim.host[11].batteryStats" 	"time (s)" 	1.140262
scalar "sim.host[11].batteryStats" 	"account" 	3
scalar "sim.host[11].batteryStats" 	"energy (mWs)" 	0.814912
scalar "sim.host[11].batteryStats" 	"time (s)" 	0.101864
scalar "sim.host[11].appl" 	"broadcast queued" 	7
scalar "sim.host[11].appl" 	"replies sent" 	54
scalar "sim.host[11].appl" 	"replies received" 	54
scalar "sim.host[12].batteryStats" 	"nominal (mW-s)" 	20000
scalar "sim.host[12].batteryStats" 	"total (mW-s)" 	4000
scalar "sim.host[12].batteryStats" 	"lifetime(s) (-1 == non-failed)" 	-1
scalar "sim.host[12].batteryStats" 	"num devices" 	1
scalar "sim.host[12].batteryStats" 	"80211Nic" 	0
scalar "sim.host[12].batteryStats" 	"device total (mWs)" 	4000
scalar "sim.host[12].batteryStats" 	"account" 	0
scalar "sim.host[12].batteryStats" 	"energy (mWs)" 	0
scalar "sim.host[12].batteryStats" 	"time (s)" 	0
scalar "sim.host[12].batteryStats" 	"account" 	1
scalar "sim.host[12].batteryStats" 	"energy (mWs)" 	3990.192448
scalar "sim.host[12].batteryStats" 	"time (s)" 	498.774056
scalar "sim.host[12].batteryStats" 	"account" 	2
scalar "sim.host[12].batteryStats" 	"energy (mWs)" 	9.100736
scalar "sim.host[12].batteryStats" 	"time (s)" 	1.137592
scalar "sim.host[12].batteryStats" 	"account" 	3
scalar "sim.host[12].batteryStats" 	"energy (mWs)" 	0.706816
scalar "sim.host[12].batteryStats" 	"time (s)" 	0.088352
scalar "sim.host[12].appl" 	"broadcast queued" 	7
scalar "sim.host[12].appl" 	"replies sent" 	48
scalar "sim.host[12].appl" 	"replies received" 	48
scalar "sim.host[13].batteryStats" 	"nominal (mW-s)" 	20000
scalar "sim.host[13].batteryStats" 	"total (mW-s)" 	4000
scalar "sim.host[13].batteryStats" 	"lifetime(s) (-1 == non-failed)" 	-1
scalar "sim.host[13].batteryStats" 	"num devices" 	1
scalar "sim.host[13].batteryStats" 	"80211Nic" 	0
scalar "sim.host[13].batteryStats" 	"device total (mWs)" 	4000
scalar "sim.host[13].batteryStats" 	"account" 	0
scalar "sim.host[13].batteryStats" 	"energy (mWs)" 	0
scalar "sim.host[13].batteryStats" 	"time (s)" 	0
scalar "sim.host[13].batteryStats" 	"account" 	1
scalar "sim.host[13].batteryStats" 	"energy (mWs)" 	3988.696144
scalar "sim.host[13].batteryStats" 	"time (s)" 	498.587018
scalar "sim.host[13].batteryStats" 	"account" 	2
scalar "sim.host[13].batteryStats" 	"energy (mWs)" 	10.496816
scalar "sim.host[13].batteryStats" 	"time (s)" 	1.312102
scalar "sim.host[13].batteryStats" 	"account" 	3
scalar "sim.host[13].batteryStats" 	"energy (mWs)" 	0.80704
scalar "sim.host[13].batteryStats" 	"time (s)" 	0.10088
scalar "sim.host[13].appl" 	"broadcast queued" 	7
scalar "sim.host[13].appl" 	"replies sent" 	52
scalar "sim.host[13].appl" 	"replies received" 	47
scalar "sim.host[14].batteryStats" 	"nominal (mW-s)" 	20000
scalar "sim.host[14].batteryStats" 	"total (mW-s)" 	4000
scalar "sim.host[14].batteryStats" 	"lifetime(s) (-1 == non-failed)" 	-1
scalar "sim.host[14].batteryStats" 	"num devices" 	1
scalar "sim.host[14].batteryStats" 	"80211Nic" 	0
scalar "sim.host[14].batteryStats" 	"device total (mWs)" 	4000
scalar "sim.host[14].batteryStats" 	"account" 	0
scalar "sim.host[14].batteryStats" 	"energy (mWs)" 	0
scalar "sim.host[14].batteryStats" 	"time (s)" 	0
scalar "sim.host[14].batteryStats" 	"account" 	1
scalar "sim.host[14].batteryStats" 	"energy (mWs)" 	3990.06272
scalar "sim.host[14].batteryStats" 	"time (s)" 	498.75784
scalar "sim.host[14].batteryStats" 	"account" 	2
scalar "sim.host[14].batteryStats" 	"energy (mWs)" 	9.14272
scalar "sim.host[14].batteryStats" 	"time (s)" 	1.14284
scalar "sim.host[14].batteryStats" 	"account" 	3
scalar "sim.host[14].batteryStats" 	"energy (mWs)" 	0.79456
scalar "sim.host[14].batteryStats" 	"time (s)" 	0.09932
scalar "sim.host[14].appl" 	"broadcast queued" 	7
scalar "sim.host[14].appl" 	"replies sent" 	55
scalar "sim.host[14].appl" 	"replies received" 	52
scalar "sim.host[15].batteryStats" 	"nominal (mW-s)" 	20000
scalar "sim.host[15].batteryStats" 	"total (mW-s)" 	4000
scalar "sim.host[15].batteryStats" 	"lifetime(s) (-1 == non-failed)" 	-1
scalar "sim.host[15].batteryStats" 	"num devices" 	1
scalar "sim.host[15].batteryStats" 	"80211Nic" 	0
scalar "sim.host[15].batteryStats" 	"device total (mWs)" 	4000
scalar "sim.host[15].batteryStats" 	"account" 	0
scalar "sim.host[15].batteryStats" 	"energy (mWs)" 	0
scalar "sim.host[15].batteryStats" 	"time (s)" 	0
scalar "sim.host[15].batteryStats" 	"account" 	1
scalar "sim.host[15].batteryStats" 	"energy (mWs)" 	3994.515744
scalar "sim.host[15].batteryStats" 	"time (s)" 	499.314468
scalar "sim.host[15].batteryStats" 	"account" 	2
scalar "sim.host[15].batteryStats" 	"energy (mWs)" 	4.851168
scalar "sim.host[15].batteryStats" 	"time (s)" 	0.606396
scalar "sim.host[15].batteryStats" 	"account" 	3
scalar "sim.host[15].batteryStats" 	"energy (mWs)" 	0.633088
scalar "sim.host[15].batteryStats" 	"time (s)" 	0.079136
scalar "sim.host[15].appl" 	"broadcast queued" 	7
scalar "sim.host[15].appl" 	"replies sent" 	42
scalar "sim.host[15].appl" 	"replies received" 	39
scalar "sim.host[16].batteryStats" 	"nominal (mW-s)" 	20000
scalar "sim.host[16].batteryStats" 	"total (mW-s)" 	4000
scalar "sim.host[16].batteryStats" 	"lifetime(s) (-1 == non-failed)" 	-1
scalar "sim.host[16].batteryStats" 	"num devices" 	1
scalar "sim.host[16].batteryStats" 	"80211Nic" 	0
scalar "sim.host[16].batteryStats" 	"device total (mWs)" 	4000
scalar "sim.host[16].batteryStats" 	"account" 	0
scalar "sim.host[16].batteryStats" 	"energy (mWs)" 	0
scalar "sim.host[16].batteryStats" 	"time (s)" 	0
scalar "sim.host[16].batteryStats" 	"account" 	1
scalar "sim.host[16].batteryStats" 	"energy (mWs)" 	3991.14091201
scalar "sim.host[16].batteryStats" 	"time (s)" 	498.892614001
scalar "sim.host[16].batteryStats" 	"account" 	2
scalar "sim.host[16].batteryStats" 	"energy (mWs)" 	8.287375992
scalar "sim.host[16].batteryStats" 	"time (s)" 	1.035921999
scalar "sim.host[16].batteryStats" 	"account" 	3
scalar "sim.host[16].batteryStats" 	"energy (mWs)" 	0.571712
scalar "sim.host[16].batteryStats" 	"time (s)" 	0.0714639999999
scalar "sim.host[16].appl" 	"broadcast queued" 	7
scalar "sim.host[16].appl" 	"replies sent" 	38
scalar "sim.host[16].appl" 	"replies received" 	38
scalar "sim.host[17].batteryStats" 	"nominal (mW-s)" 	20000
scalar "sim.host[17].batteryStats" 	"total (mW-s)" 	4000
scalar "sim.host[17].batteryStats" 	"lifetime(s) (-1 == non-failed)" 	-1
scalar "sim.host[17].batteryStats" 	"num devices" 	1
scalar "sim.host[17].batteryStats" 	"80211Nic" 	0
scalar "sim.host[17].batteryStats" 	"device total (mWs)" 	4000
scalar "sim.host[17].batteryStats" 	"account" 	0
scalar "sim.host[17].batteryStats" 	"energy (mWs)" 	0
scalar "sim.host[17].batteryStats" 	"time (s)" 	0
scalar "sim.host[17].batteryStats" 	"account" 	1
scalar "sim.host[17].batteryStats" 	"energy (mWs)" 	3989.44552
scalar "sim.host[17].batteryStats" 	"time (s)" 	498.68069
scalar "sim.host[17].batteryStats" 	"account" 	2
scalar "sim.host[17].batteryStats" 	"energy (mWs)" 	9.716016
scalar "sim.host[17].batteryStats" 	"time (s)" 	1.214502
scalar "sim.host[17].batteryStats" 	"account" 	3
scalar "sim.host[17].batteryStats" 	"energy (mWs)" 	0.838464
scalar "sim.host[17].batteryStats" 	"time (s)" 	0.104808
scalar "sim.host[17].appl" 	"broadcast queued" 	7
scalar "sim.host[17].appl" 	"replies sent" 	58
scalar "sim.host[17].appl" 	"replies received" 	54
scalar "sim.host[18].batteryStats" 	"nominal (mW-s)" 	20000
scalar "sim.host[18].batteryStats" 	"total (mW-s)" 	4000
scalar "sim.host[18].batteryStats" 	"lifetime(s) (-1 == non-failed)" 	-1
scalar "sim.host[18].batteryStats" 	"num devices" 	1
scalar "sim.host[18].batteryStats" 	"80211Nic" 	0
scalar "sim.host[18].batteryStats" 	"device total (mWs)" 	4000
scalar "sim.host[18].batteryStats" 	"account" 	0
scalar "sim.host[18].batteryStats" 	"energy (mWs)" 	0
scalar "sim.host[18].batteryStats" 	"time (s)" 	0
scalar "sim.host[18].batteryStats" 	"account" 	1
scalar "sim.host[18].batteryStats" 	"energy (mWs)" 	3991.51464002
scalar "sim.host[18].batteryStats" 	"time (s)" 	498.939330002
scalar "sim.host[18].batteryStats" 	"account" 	2
scalar "sim.host[18].batteryStats" 	"energy (mWs)" 	7.698095984
scalar "sim.host[18].batteryStats" 	"time (s)" 	0.962261998
scalar "sim.host[18].batteryStats" 	"account" 	3
scalar "sim.host[18].batteryStats" 	"energy (mWs)" 	0.787263999999
scalar "sim.host[18].batteryStats" 	"time (s)" 	0.0984079999999
scalar "sim.host[18].appl" 	"broadcast queued" 	7
scalar "sim.host[18].appl" 	"replies sent" 	47
scalar "sim.host[18].appl" 	"replies received" 	44
scalar "sim.host[19].batteryStats" 	"nominal (mW-s)" 	20000
scalar "sim.host[19].batteryStats" 	"total (mW-s)" 	4000
scalar "sim.host[19].batteryStats" 	"lifetime(s) (-1 == non-failed)" 	-1
scalar "sim.host[19].batteryStats" 	"num devices" 	1
scalar "sim.host[19].batteryStats" 	"80211Nic" 	0
scalar "sim.host[19].batteryStats" 	"device total (mWs)" 	4000
scalar "sim.host[19].batteryStats" 	"account" 	0
scalar "sim.host[19].batteryStats" 	"energy (mWs)" 	0
scalar "sim.host[19].batteryStats" 	"time (s)" 	0
scalar "sim.host[19].batteryStats" 	"account" 	1
scalar "sim.host[19].batteryStats" 	"energy (mWs)" 	3991.658112
scalar "sim.host[19].batteryStats" 	"time (s)" 	498.957264
scalar "sim.host[19].batteryStats" 	"account" 	2
scalar "sim.host[19].batteryStats" 	"energy (mWs)" 	7.927232
scalar "sim.host[19].batteryStats" 	"time (s)" 	0.990904
scalar "sim.host[19].batteryStats" 	"account" 	3
scalar "sim.host[19].batteryStats" 	"energy (mWs)" 	0.414656
scalar "sim.host[19].batteryStats" 	"time (s)" 	0.051832
scalar "sim.host[19].appl" 	"broadcast queued" 	7
scalar "sim.host[19].appl" 	"replies sent" 	26
scalar "sim.host[19].appl" 	"replies received" 	28