version 2
run Eight-0-20090922-16:16:48-16899
attr configname Eight
attr datetime 20090922-16:16:48
attr experiment Eight
attr inifile omnetpp.ini
attr iterationvars ""
attr iterationvars2 $repetition=0
attr measurement ""
attr network sim
attr processid 16899
attr repetition 0
attr replication #0
attr resultdir results
attr runnumber 0
attr seedset 0

scalar sim.host[0].batteryStats 	"nominal (mW-s)" 	20000
scalar sim.host[0].batteryStats 	"total (mW-s)" 	4000
scalar sim.host[0].batteryStats 	"lifetime(s) (-1 == non-failed)" 	-1
scalar sim.host[0].batteryStats 	"num devices" 	1
scalar sim.host[0].batteryStats 	80211Nic 	0
scalar sim.host[0].batteryStats 	"device total (mWs)" 	4000
scalar sim.host[0].batteryStats 	account 	0
scalar sim.host[0].batteryStats 	"energy (mWs)" 	0
scalar sim.host[0].batteryStats 	"time (s)" 	0
scalar sim.host[0].batteryStats 	account 	1
scalar sim.host[0].batteryStats 	"energy (mWs)" 	3990.673152
scalar sim.host[0].batteryStats 	"time (s)" 	498.834144
scalar sim.host[0].batteryStats 	account 	2
scalar sim.host[0].batteryStats 	"energy (mWs)" 	8.684096
scalar sim.host[0].batteryStats 	"time (s)" 	1.085512
scalar sim.host[0].batteryStats 	account 	3
scalar sim.host[0].batteryStats 	"energy (mWs)" 	0.642752
scalar sim.host[0].batteryStats 	"time (s)" 	0.080344
scalar sim.host[0].appl 	"broadcast queued" 	7
scalar sim.host[0].appl 	"replies sent" 	45
scalar sim.host[0].appl 	"replies received" 	42
scalar sim.host[1].batteryStats 	"nominal (mW-s)" 	20000
scalar sim.host[1].batteryStats 	"total (mW-s)" 	4000
scalar sim.host[1].batteryStats 	"lifetime(s) (-1 == non-failed)" 	-1
scalar sim.host[1].batteryStats 	"num devices" 	1
scalar sim.host[1].batteryStats 	80211Nic 	0
scalar sim.host[1].batteryStats 	"device total (mWs)" 	4000
scalar sim.host[1].batteryStats 	account 	0
scalar sim.host[1].batteryStats 	"energy (mWs)" 	0
scalar sim.host[1].batteryStats 	"time (s)" 	0
scalar sim.host[1].batteryStats 	account 	1
scalar sim.host[1].batteryStats 	"energy (mWs)" 	3993.759104
scalar sim.host[1].batteryStats 	"time (s)" 	499.219888
scalar sim.host[1].batteryStats 	account 	2
scalar sim.host[1].batteryStats 	"energy (mWs)" 	5.794432
scalar sim.host[1].batteryStats 	"time (s)" 	0.724304
scalar sim.host[1].batteryStats 	account 	3
scalar sim.host[1].batteryStats 	"energy (mWs)" 	0.446464
scalar sim.host[1].batteryStats 	"time (s)" 	0.055808
scalar sim.host[1].appl 	"broadcast queued" 	7
scalar sim.host[1].appl 	"replies sent" 	29
scalar sim.host[1].appl 	"replies received" 	30
scalar sim.host[2].batteryStats 	"nominal (mW-s)" 	20000
scalar sim.host[2].batteryStats 	"total (mW-s)" 	4000
scalar sim.host[2].batteryStats 	"lifetime(s) (-1 == non-failed)" 	-1
scalar sim.host[2].batteryStats 	"num devices" 	1
scalar sim.host[2].batteryStats 	80211Nic 	0
scalar sim.host[2].batteryStats 	"device total (mWs)" 	4000
scalar sim.host[2].batteryStats 	account 	0
scalar sim.host[2].batteryStats 	"energy (mWs)" 	0
scalar sim.host[2].batteryStats 	"time (s)" 	0
scalar sim.host[2].batteryStats 	account 	1
scalar sim.host[2].batteryStats 	"energy (mWs)" 	3993.676608
scalar sim.host[2].batteryStats 	"time (s)" 	499.209576
scalar sim.host[2].batteryStats 	account 	2
scalar sim.host[2].batteryStats 	"energy (mWs)" 	5.872256
scalar sim.host[2].batteryStats 	"time (s)" 	0.734032
scalar sim.host[2].batteryStats 	account 	3
scalar sim.host[2].batteryStats 	"energy (mWs)" 	0.451136
scalar sim.host[2].batteryStats 	"time (s)" 	0.056392
scalar sim.host[2].appl 	"broadcast queued" 	7
scalar sim.host[2].appl 	"replies sent" 	29
scalar sim.host[2].appl 	"replies received" 	28
scalar sim.host[3].batteryStats 	"nominal (mW-s)" 	20000
scalar sim.host[3].batteryStats 	"total (mW-s)" 	4000
scalar sim.host[3].batteryStats 	"lifetime(s) (-1 == non-failed)" 	-1
scalar sim.host[3].batteryStats 	"num devices" 	1
scalar sim.host[3].batteryStats 	80211Nic 	0
scalar sim.host[3].batteryStats 	"device total (mWs)" 	4000
scalar sim.host[3].batteryStats 	account 	0
scalar sim.host[3].batteryStats 	"energy (mWs)" 	0
scalar sim.host[3].batteryStats 	"time (s)" 	0
scalar sim.host[3].batteryStats 	account 	1
scalar sim.host[3].batteryStats 	"energy (mWs)" 	3991.311616
scalar sim.host[3].batteryStats 	"time (s)" 	498.913952
scalar sim.host[3].batteryStats 	account 	2
scalar sim.host[3].batteryStats 	"energy (mWs)" 	7.971008
scalar sim.host[3].batteryStats 	"time (s)" 	0.996376
scalar sim.host[3].batteryStats 	account 	3
scalar sim.host[3].batteryStats 	"energy (mWs)" 	0.717376
scalar sim.host[3].batteryStats 	"time (s)" 	0.089672
scalar sim.host[3].appl 	"broadcast queued" 	7
scalar sim.host[3].appl 	"replies sent" 	47
scalar sim.host[3].appl 	"replies received" 	44
scalar sim.host[4].batteryStats 	"nominal (mW-s)" 	20000
scalar sim.host[4].batteryStats 	"total (mW-s)" 	4000
scalar sim.host[4].batteryStats 	"lifetime(s) (-1 == non-failed)" 	-1
scalar sim.host[4].batteryStats 	"num devices" 	1
scalar sim.host[4].batteryStats 	80211Nic 	0
scalar sim.host[4].batteryStats 	"device total (mWs)" 	4000
scalar sim.host[4].batteryStats 	account 	0
scalar sim.host[4].batteryStats 	"energy (mWs)" 	0
scalar sim.host[4].batteryStats 	"time (s)" 	0
scalar sim.host[4].batteryStats 	account 	1
scalar sim.host[4].batteryStats 	"energy (mWs)" 	3991.20608
scalar sim.host[4].batteryStats 	"time (s)" 	498.90076
scalar sim.host[4].batteryStats 	account 	2
scalar sim.host[4].batteryStats 	"energy (mWs)" 	8.0688
scalar sim.host[4].batteryStats 	"time (s)" 	1.0086
scalar sim.host[4].batteryStats 	account 	3
scalar sim.host[4].batteryStats 	"energy (mWs)" 	0.72512
scalar sim.host[4].batteryStats 	"time (s)" 	0.09064
scalar sim.host[4].appl 	"broadcast queued" 	7
scalar sim.host[4].appl 	"replies sent" 	49
scalar sim.host[4].appl 	"replies received" 	50
scalar sim.host[5].batteryStats 	"nominal (mW-s)" 	20000
scalar sim.host[5].batteryStats 	"total (mW-s)" 	4000
scalar sim.host[5].batteryStats 	"lifetime(s) (-1 == non-failed)" 	-1
scalar sim.host[5].batteryStats 	"num devices" 	1
scalar sim.host[5].batteryStats 	80211Nic 	0
scalar sim.host[5].batteryStats 	"device total (mWs)" 	4000
scalar sim.host[5].batteryStats 	account 	0
scalar sim.host[5].batteryStats 	"energy (mWs)" 	0
scalar sim.host[5].batteryStats 	"time (s)" 	0
scalar sim.host[5].batteryStats 	account 	1
scalar sim.host[5].batteryStats 	"energy (mWs)" 	3991.210752
scalar sim.host[5].batteryStats 	"time (s)" 	498.901344
scalar sim.host[5].batteryStats 	account 	2
scalar sim.host[5].batteryStats 	"energy (mWs)" 	8.001664
scalar sim.host[5].batteryStats 	"time (s)" 	1.000208
scalar sim.host[5].batteryStats 	account 	3
scalar sim.host[5].batteryStats 	"energy (mWs)" 	0.787584
scalar sim.host[5].batteryStats 	"time (s)" 	0.098448
scalar sim.host[5].appl 	"broadcast queued" 	7
scalar sim.host[5].appl 	"replies sent" 	54
scalar sim.host[5].appl 	"replies received" 	56
scalar sim.host[6].batteryStats 	"nominal (mW-s)" 	20000
scalar sim.host[6].batteryStats 	"total (mW-s)" 	4000
scalar sim.host[6].batteryStats 	"lifetime(s) (-1 == non-failed)" 	-1
scalar sim.host[6].batteryStats 	"num devices" 	1
scalar sim.host[6].batteryStats 	80211Nic 	0
scalar sim.host[6].batteryStats 	"device total (mWs)" 	4000
scalar sim.host[6].batteryStats 	account 	0
scalar sim.host[6].batteryStats 	"energy (mWs)" 	0
scalar sim.host[6].batteryStats 	"time (s)" 	0
scalar sim.host[6].batteryStats 	account 	1
scalar sim.host[6].batteryStats 	"energy (mWs)" 	3995.51008
scalar sim.host[6].batteryStats 	"time (s)" 	499.43876
scalar sim.host[6].batteryStats 	account 	2
scalar sim.host[6].batteryStats 	"energy (mWs)" 	4.337984
scalar sim.host[6].batteryStats 	"time (s)" 	0.542248
scalar sim.host[6].batteryStats 	account 	3
scalar sim.host[6].batteryStats 	"energy (mWs)" 	0.151936
scalar sim.host[6].batteryStats 	"time (s)" 	0.018992
scalar sim.host[6].appl 	"broadcast queued" 	7
scalar sim.host[6].appl 	"replies sent" 	8
scalar sim.host[6].appl 	"replies received" 	7
scalar sim.host[7].batteryStats 	"nominal (mW-s)" 	20000
scalar sim.host[7].batteryStats 	"total (mW-s)" 	4000
scalar sim.host[7].batteryStats 	"lifetime(s) (-1 == non-failed)" 	-1
scalar sim.host[7].batteryStats 	"num devices" 	1
scalar sim.host[7].batteryStats 	80211Nic 	0
scalar sim.host[7].batteryStats 	"device total (mWs)" 	4000
scalar sim.host[7].batteryStats 	account 	0
scalar sim.host[7].batteryStats 	"energy (mWs)" 	0
scalar sim.host[7].batteryStats 	"time (s)" 	0
scalar sim.host[7].batteryStats 	account 	1
scalar sim.host[7].batteryStats 	"energy (mWs)" 	3990.663808
scalar sim.host[7].batteryStats 	"time (s)" 	498.832976
scalar sim.host[7].batteryStats 	account 	2
scalar sim.host[7].batteryStats 	"energy (mWs)" 	8.679872
scalar sim.host[7].batteryStats 	"time (s)" 	1.084984
scalar sim.host[7].batteryStats 	account 	3
scalar sim.host[7].batteryStats 	"energy (mWs)" 	0.65632
scalar sim.host[7].batteryStats 	"time (s)" 	0.08204
scalar sim.host[7].appl 	"broadcast queued" 	7
scalar sim.host[7].appl 	"replies sent" 	46
scalar sim.host[7].appl 	"replies received" 	41
scalar sim.host[8].batteryStats 	"nominal (mW-s)" 	20000
scalar sim.host[8].batteryStats 	"total (mW-s)" 	4000
scalar sim.host[8].batteryStats 	"lifetime(s) (-1 == non-failed)" 	-1
scalar sim.host[8].batteryStats 	"num devices" 	1
scalar sim.host[8].batteryStats 	80211Nic 	0
scalar sim.host[8].batteryStats 	"device total (mWs)" 	4000
scalar sim.host[8].batteryStats 	account 	0
scalar sim.host[8].batteryStats 	"energy (mWs)" 	0
scalar sim.host[8].batteryStats 	"time (s)" 	0
scalar sim.host[8].batteryStats 	account 	1
scalar sim.host[8].batteryStats 	"energy (mWs)" 	3994.464832
scalar sim.host[8].batteryStats 	"time (s)" 	499.308104
scalar sim.host[8].batteryStats 	account 	2
scalar sim.host[8].batteryStats 	"energy (mWs)" 	5.219072
scalar sim.host[8].batteryStats 	"time (s)" 	0.652384
scalar sim.host[8].batteryStats 	account 	3
scalar sim.host[8].batteryStats 	"energy (mWs)" 	0.316096
scalar sim.host[8].batteryStats 	"time (s)" 	0.039512
scalar sim.host[8].appl 	"broadcast queued" 	7
scalar sim.host[8].appl 	"replies sent" 	20
scalar sim.host[8].appl 	"replies received" 	21
scalar sim.host[9].batteryStats 	"nominal (mW-s)" 	20000
scalar sim.host[9].batteryStats 	"total (mW-s)" 	4000
scalar sim.host[9].batteryStats 	"lifetime(s) (-1 == non-failed)" 	-1
scalar sim.host[9].batteryStats 	"num devices" 	1
scalar sim.host[9].batteryStats 	80211Nic 	0
scalar sim.host[9].batteryStats 	"device total (mWs)" 	4000
scalar sim.host[9].batteryStats 	account 	0
scalar sim.host[9].batteryStats 	"energy (mWs)" 	0
scalar sim.host[9].batteryStats 	"time (s)" 	0
scalar sim.host[9].batteryStats 	account 	1
scalar sim.host[9].batteryStats 	"energy (mWs)" 	3987.93568
scalar sim.host[9].batteryStats 	"time (s)" 	498.49196
scalar sim.host[9].batteryStats 	account 	2
scalar sim.host[9].batteryStats 	"energy (mWs)" 	11.236096
scalar sim.host[9].batteryStats 	"time (s)" 	1.404512
scalar sim.host[9].batteryStats 	account 	3
scalar sim.host[9].batteryStats 	"energy (mWs)" 	0.828224
scalar sim.host[9].batteryStats 	"time (s)" 	0.103528
scalar sim.host[9].appl 	"broadcast queued" 	7
scalar sim.host[9].appl 	"replies sent" 	58
scalar sim.host[9].appl 	"replies received" 	50
scalar sim.host[10].batteryStats 	"nominal (mW-s)" 	20000
scalar sim.host[10].batteryStats 	"total (mW-s)" 	4000
scalar sim.host[10].batteryStats 	"lifetime(s) (-1 == non-failed)" 	-1
scalar sim.host[10].batteryStats 	"num devices" 	1
scalar sim.host[10].batteryStats 	80211Nic 	0
scalar sim.host[10].batteryStats 	"device total (mWs)" 	4000
scalar sim.host[10].batteryStats 	account 	0
scalar sim.host[10].batteryStats 	"energy (mWs)" 	0
scalar sim.host[10].batteryStats 	"time (s)" 	0
scalar sim.host[10].batteryStats 	account 	1
scalar sim.host[10].batteryStats 	"energy (mWs)" 	3992.391744
scalar sim.host[10].batteryStats 	"time (s)" 	499.048968
scalar sim.host[10].batteryStats 	account 	2
scalar sim.host[10].batteryStats 	"energy (mWs)" 	6.969024
scalar sim.host[10].batteryStats 	"time (s)" 	0.871128
scalar sim.host[10].batteryStats 	account 	3
scalar sim.host[10].batteryStats 	"energy (mWs)" 	0.639232
scalar sim.host[10].batteryStats 	"time (s)" 	0.079904
scalar sim.host[10].appl 	"broadcast queued" 	7
scalar sim.host[10].appl 	"replies sent" 	45
scalar sim.host[10].appl 	"replies received" 	39
scalar sim.host[11].batteryStats 	"nominal (mW-s)" 	20000
scalar sim.host[11].batteryStats 	"total (mW-s)" 	4000
scalar sim.host[11].batteryStats 	"lifetime(s) (-1 == non-failed)" 	-1
scalar sim.host[11].batteryStats 	"num devices" 	1
scalar sim.host[11].batteryStats 	80211Nic 	0
scalar sim.host[11].batteryStats 	"device total (mWs)" 	4000
scalar sim.host[11].batteryStats 	account 	0
scalar sim.host[11].batteryStats 	"energy (mWs)" 	0
scalar sim.host[11].batteryStats 	"time (s)" 	0
scalar sim.host[11].batteryStats 	account 	1
scalar sim.host[11].batteryStats 	"energy (mWs)" 	3991.220096
scalar sim.host[11].batteryStats 	"time (s)" 	498.902512
scalar sim.host[11].batteryStats 	account 	2
scalar sim.host[11].batteryStats 	"energy (mWs)" 	7.938048
scalar sim.host[11].batteryStats 	"time (s)" 	0.992256
scalar sim.host[11].batteryStats 	account 	3
scalar sim.host[11].batteryStats 	"energy (mWs)" 	0.841856
scalar sim.host[11].batteryStats 	"time (s)" 	0.105232
scalar sim.host[11].appl 	"broadcast queued" 	7
scalar sim.host[11].appl 	"replies sent" 	56
scalar sim.host[11].appl 	"replies received" 	58
scalar sim.host[12].batteryStats 	"nominal (mW-s)" 	20000
scalar sim.host[12].batteryStats 	"total (mW-s)" 	4000
scalar sim.host[12].batteryStats 	"lifetime(s) (-1 == non-failed)" 	-1
scalar sim.host[12].batteryStats 	"num devices" 	1
scalar sim.host[12].batteryStats 	80211Nic 	0
scalar sim.host[12].batteryStats 	"device total (mWs)" 	4000
scalar sim.host[12].batteryStats 	account 	0
scalar sim.host[12].batteryStats 	"energy (mWs)" 	0
scalar sim.host[12].batteryStats 	"time (s)" 	0
scalar sim.host[12].batteryStats 	account 	1
scalar sim.host[12].batteryStats 	"energy (mWs)" 	3993.460608
scalar sim.host[12].batteryStats 	"time (s)" 	499.182576
scalar sim.host[12].batteryStats 	account 	2
scalar sim.host[12].batteryStats 	"energy (mWs)" 	5.786816
scalar sim.host[12].batteryStats 	"time (s)" 	0.723352
scalar sim.host[12].batteryStats 	account 	3
scalar sim.host[12].batteryStats 	"energy (mWs)" 	0.752576
scalar sim.host[12].batteryStats 	"time (s)" 	0.094072
scalar sim.host[12].appl 	"broadcast queued" 	7
scalar sim.host[12].appl 	"replies sent" 	50
scalar sim.host[12].appl 	"replies received" 	53
scalar sim.host[13].batteryStats 	"nominal (mW-s)" 	20000
scalar sim.host[13].batteryStats 	"total (mW-s)" 	4000
scalar sim.host[13].batteryStats 	"lifetime(s) (-1 == non-failed)" 	-1
scalar sim.host[13].batteryStats 	"num devices" 	1
scalar sim.host[13].batteryStats 	80211Nic 	0
scalar sim.host[13].batteryStats 	"device total (mWs)" 	4000
scalar sim.host[13].batteryStats 	account 	0
scalar sim.host[13].batteryStats 	"energy (mWs)" 	0
scalar sim.host[13].batteryStats 	"time (s)" 	0
scalar sim.host[13].batteryStats 	account 	1
scalar sim.host[13].batteryStats 	"energy (mWs)" 	3992.396416
scalar sim.host[13].batteryStats 	"time (s)" 	499.049552
scalar sim.host[13].batteryStats 	account 	2
scalar sim.host[13].batteryStats 	"energy (mWs)" 	6.87616
scalar sim.host[13].batteryStats 	"time (s)" 	0.85952
scalar sim.host[13].batteryStats 	account 	3
scalar sim.host[13].batteryStats 	"energy (mWs)" 	0.727424
scalar sim.host[13].batteryStats 	"time (s)" 	0.090928
scalar sim.host[13].appl 	"broadcast queued" 	7
scalar sim.host[13].appl 	"replies sent" 	50
scalar sim.host[13].appl 	"replies received" 	47
scalar sim.host[14].batteryStats 	"nominal (mW-s)" 	20000
scalar sim.host[14].batteryStats 	"total (mW-s)" 	4000
scalar sim.host[14].batteryStats 	"lifetime(s) (-1 == non-failed)" 	-1
scalar sim.host[14].batteryStats 	"num devices" 	1
scalar sim.host[14].batteryStats 	80211Nic 	0
scalar sim.host[14].batteryStats 	"device total (mWs)" 	4000
scalar sim.host[14].batteryStats 	account 	0
scalar sim.host[14].batteryStats 	"energy (mWs)" 	0
scalar sim.host[14].batteryStats 	"time (s)" 	0
scalar sim.host[14].batteryStats 	account 	1
scalar sim.host[14].batteryStats 	"energy (mWs)" 	3992.477952
scalar sim.host[14].batteryStats 	"time (s)" 	499.059744
scalar sim.host[14].batteryStats 	account 	2
scalar sim.host[14].batteryStats 	"energy (mWs)" 	7.377344
scalar sim.host[14].batteryStats 	"time (s)" 	0.922168
scalar sim.host[14].batteryStats 	account 	3
scalar sim.host[14].batteryStats 	"energy (mWs)" 	0.144704
scalar sim.host[14].batteryStats 	"time (s)" 	0.018088
scalar sim.host[14].appl 	"broadcast queued" 	7
scalar sim.host[14].appl 	"replies sent" 	7
scalar sim.host[14].appl 	"replies received" 	8
scalar sim.host[15].batteryStats 	"nominal (mW-s)" 	20000
scalar sim.host[15].batteryStats 	"total (mW-s)" 	4000
scalar sim.host[15].batteryStats 	"lifetime(s) (-1 == non-failed)" 	-1
scalar sim.host[15].batteryStats 	"num devices" 	1
scalar sim.host[15].batteryStats 	80211Nic 	0
scalar sim.host[15].batteryStats 	"device total (mWs)" 	4000
scalar sim.host[15].batteryStats 	account 	0
scalar sim.host[15].batteryStats 	"energy (mWs)" 	0
scalar sim.host[15].batteryStats 	"time (s)" 	0
scalar sim.host[15].batteryStats 	account 	1
scalar sim.host[15].batteryStats 	"energy (mWs)" 	3993.46528
scalar sim.host[15].batteryStats 	"time (s)" 	499.18316
scalar sim.host[15].batteryStats 	account 	2
scalar sim.host[15].batteryStats 	"energy (mWs)" 	5.786432
scalar sim.host[15].batteryStats 	"time (s)" 	0.723304
scalar sim.host[15].batteryStats 	account 	3
scalar sim.host[15].batteryStats 	"energy (mWs)" 	0.748288
scalar sim.host[15].batteryStats 	"time (s)" 	0.093536
scalar sim.host[15].appl 	"broadcast queued" 	7
scalar sim.host[15].appl 	"replies sent" 	48
scalar sim.host[15].appl 	"replies received" 	53
scalar sim.host[16].batteryStats 	"nominal (mW-s)" 	20000
scalar sim.host[16].batteryStats 	"total (mW-s)" 	4000
scalar sim.host[16].batteryStats 	"lifetime(s) (-1 == non-failed)" 	-1
scalar sim.host[16].batteryStats 	"num devices" 	1
scalar sim.host[16].batteryStats 	80211Nic 	0
scalar sim.host[16].batteryStats 	"device total (mWs)" 	4000
scalar sim.host[16].batteryStats 	account 	0
scalar sim.host[16].batteryStats 	"energy (mWs)" 	0
scalar sim.host[16].batteryStats 	"time (s)" 	0
scalar sim.host[16].batteryStats 	account 	1
scalar sim.host[16].batteryStats 	"energy (mWs)" 	3993.597312
scalar sim.host[16].batteryStats 	"time (s)" 	499.199664
scalar sim.host[16].batteryStats 	account 	2
scalar sim.host[16].batteryStats 	"energy (mWs)" 	5.751552
scalar sim.host[16].batteryStats 	"time (s)" 	0.718944
scalar sim.host[16].batteryStats 	account 	3
scalar sim.host[16].batteryStats 	"energy (mWs)" 	0.651136
scalar sim.host[16].batteryStats 	"time (s)" 	0.081392
scalar sim.host[16].appl 	"broadcast queued" 	7
scalar sim.host[16].appl 	"replies sent" 	45
scalar sim.host[16].appl 	"replies received" 	42
scalar sim.host[17].batteryStats 	"nominal (mW-s)" 	20000
scalar sim.host[17].batteryStats 	"total (mW-s)" 	4000
scalar sim.host[17].batteryStats 	"lifetime(s) (-1 == non-failed)" 	-1
scalar sim.host[17].batteryStats 	"num devices" 	1
scalar sim.host[17].batteryStats 	80211Nic 	0
scalar sim.host[17].batteryStats 	"device total (mWs)" 	4000
scalar sim.host[17].batteryStats 	account 	0
scalar sim.host[17].batteryStats 	"energy (mWs)" 	0
scalar sim.host[17].batteryStats 	"time (s)" 	0
scalar sim.host[17].batteryStats 	account 	1
scalar sim.host[17].batteryStats 	"energy (mWs)" 	3987.940352
scalar sim.host[17].batteryStats 	"time (s)" 	498.492544
scalar sim.host[17].batteryStats 	account 	2
scalar sim.host[17].batteryStats 	"energy (mWs)" 	10.970368
scalar sim.host[17].batteryStats 	"time (s)" 	1.371296
scalar sim.host[17].batteryStats 	account 	3
scalar sim.host[17].batteryStats 	"energy (mWs)" 	1.08928
scalar sim.host[17].batteryStats 	"time (s)" 	0.13616
scalar sim.host[17].appl 	"broadcast queued" 	7
scalar sim.host[17].appl 	"replies sent" 	66
scalar sim.host[17].appl 	"replies received" 	57
scalar sim.host[18].batteryStats 	"nominal (mW-s)" 	20000
scalar sim.host[18].batteryStats 	"total (mW-s)" 	4000
scalar sim.host[18].batteryStats 	"lifetime(s) (-1 == non-failed)" 	-1
scalar sim.host[18].batteryStats 	"num devices" 	1
scalar sim.host[18].batteryStats 	80211Nic 	0
scalar sim.host[18].batteryStats 	"device total (mWs)" 	4000
scalar sim.host[18].batteryStats 	account 	0
scalar sim.host[18].batteryStats 	"energy (mWs)" 	0
scalar sim.host[18].batteryStats 	"time (s)" 	0
scalar sim.host[18].batteryStats 	account 	1
scalar sim.host[18].batteryStats 	"energy (mWs)" 	3992.398912
scalar sim.host[18].batteryStats 	"time (s)" 	499.049864
scalar sim.host[18].batteryStats 	account 	2
scalar sim.host[18].batteryStats 	"energy (mWs)" 	6.942336
scalar sim.host[18].batteryStats 	"time (s)" 	0.867792
scalar sim.host[18].batteryStats 	account 	3
scalar sim.host[18].batteryStats 	"energy (mWs)" 	0.658752
scalar sim.host[18].batteryStats 	"time (s)" 	0.082344
scalar sim.host[18].appl 	"broadcast queued" 	7
scalar sim.host[18].appl 	"replies sent" 	44
scalar sim.host[18].appl 	"replies received" 	44
scalar sim.host[19].batteryStats 	"nominal (mW-s)" 	20000
scalar sim.host[19].batteryStats 	"total (mW-s)" 	4000
scalar sim.host[19].batteryStats 	"lifetime(s) (-1 == non-failed)" 	-1
scalar sim.host[19].batteryStats 	"num devices" 	1
scalar sim.host[19].batteryStats 	80211Nic 	0
scalar sim.host[19].batteryStats 	"device total (mWs)" 	4000
scalar sim.host[19].batteryStats 	account 	0
scalar sim.host[19].batteryStats 	"energy (mWs)" 	0
scalar sim.host[19].batteryStats 	"time (s)" 	0
scalar sim.host[19].batteryStats 	account 	1
scalar sim.host[19].batteryStats 	"energy (mWs)" 	3992.398912
scalar sim.host[19].batteryStats 	"time (s)" 	499.049864
scalar sim.host[19].batteryStats 	account 	2
scalar sim.host[19].batteryStats 	"energy (mWs)" 	6.895552
scalar sim.host[19].batteryStats 	"time (s)" 	0.861944
scalar sim.host[19].batteryStats 	account 	3
scalar sim.host[19].batteryStats 	"energy (mWs)" 	0.705536
scalar sim.host[19].batteryStats 	"time (s)" 	0.088192
scalar sim.host[19].appl 	"broadcast queued" 	7
scalar sim.host[19].appl 	"replies sent" 	45
scalar sim.host[19].appl 	"replies received" 	49
