version 2
run Eight-0-20110329-15:17:54-9094
attr configname Eight
attr datetime 20110329-15:17:54
attr experiment Eight
attr inifile omnetpp.ini
attr iterationvars ""
attr iterationvars2 $repetition=0
attr measurement ""
attr network sim
attr processid 9094
attr repetition 0
attr replication #0
attr resultdir results
attr runnumber 0
attr seedset 0

scalar sim.host[0].batteryStats 	nominal 	20000
attr unit  mW-s
scalar sim.host[0].batteryStats 	total 	4000
attr unit  mW-s
scalar sim.host[0].batteryStats 	lifetime 	-1
attr unit  s
scalar sim.host[0].batteryStats 	"Mean power consumption" 	8.00000000001
attr unit  mW
scalar sim.host[0].batteryStats 	"num devices" 	1
scalar sim.host[0].batteryStats 	"physical layer" 	0
scalar sim.host[0].batteryStats 	"device total (mWs)" 	4000
scalar sim.host[0].batteryStats 	account 	0
scalar sim.host[0].batteryStats 	"energy (mWs)" 	0
scalar sim.host[0].batteryStats 	"time (s)" 	0
scalar sim.host[0].batteryStats 	account 	1
scalar sim.host[0].batteryStats 	"energy (mWs)" 	3999.337024
scalar sim.host[0].batteryStats 	"time (s)" 	499.917128
scalar sim.host[0].batteryStats 	account 	2
scalar sim.host[0].batteryStats 	"energy (mWs)" 	0.662976
scalar sim.host[0].batteryStats 	"time (s)" 	0.082872
scalar sim.host[0].batteryStats 	account 	3
scalar sim.host[0].batteryStats 	"energy (mWs)" 	0
scalar sim.host[0].batteryStats 	"time (s)" 	0
scalar sim.host[0].batteryStats 	account 	4
scalar sim.host[0].batteryStats 	"energy (mWs)" 	0
scalar sim.host[0].batteryStats 	"time (s)" 	0
scalar sim.host[0].appl 	"broadcast queued" 	7
scalar sim.host[0].appl 	"replies sent" 	48
scalar sim.host[0].appl 	"replies received" 	42
scalar sim.host[1].batteryStats 	nominal 	20000
attr unit  mW-s
scalar sim.host[1].batteryStats 	total 	4000
attr unit  mW-s
scalar sim.host[1].batteryStats 	lifetime 	-1
attr unit  s
scalar sim.host[1].batteryStats 	"Mean power consumption" 	8
attr unit  mW
scalar sim.host[1].batteryStats 	"num devices" 	1
scalar sim.host[1].batteryStats 	"physical layer" 	0
scalar sim.host[1].batteryStats 	"device total (mWs)" 	4000
scalar sim.host[1].batteryStats 	account 	0
scalar sim.host[1].batteryStats 	"energy (mWs)" 	0
scalar sim.host[1].batteryStats 	"time (s)" 	0
scalar sim.host[1].batteryStats 	account 	1
scalar sim.host[1].batteryStats 	"energy (mWs)" 	3999.503872
scalar sim.host[1].batteryStats 	"time (s)" 	499.937984
scalar sim.host[1].batteryStats 	account 	2
scalar sim.host[1].batteryStats 	"energy (mWs)" 	0.496128
scalar sim.host[1].batteryStats 	"time (s)" 	0.062016
scalar sim.host[1].batteryStats 	account 	3
scalar sim.host[1].batteryStats 	"energy (mWs)" 	0
scalar sim.host[1].batteryStats 	"time (s)" 	0
scalar sim.host[1].batteryStats 	account 	4
scalar sim.host[1].batteryStats 	"energy (mWs)" 	0
scalar sim.host[1].batteryStats 	"time (s)" 	0
scalar sim.host[1].appl 	"broadcast queued" 	7
scalar sim.host[1].appl 	"replies sent" 	32
scalar sim.host[1].appl 	"replies received" 	28
scalar sim.host[2].batteryStats 	nominal 	20000
attr unit  mW-s
scalar sim.host[2].batteryStats 	total 	4000
attr unit  mW-s
scalar sim.host[2].batteryStats 	lifetime 	-1
attr unit  s
scalar sim.host[2].batteryStats 	"Mean power consumption" 	8
attr unit  mW
scalar sim.host[2].batteryStats 	"num devices" 	1
scalar sim.host[2].batteryStats 	"physical layer" 	0
scalar sim.host[2].batteryStats 	"device total (mWs)" 	4000
scalar sim.host[2].batteryStats 	account 	0
scalar sim.host[2].batteryStats 	"energy (mWs)" 	0
scalar sim.host[2].batteryStats 	"time (s)" 	0
scalar sim.host[2].batteryStats 	account 	1
scalar sim.host[2].batteryStats 	"energy (mWs)" 	3999.584448
scalar sim.host[2].batteryStats 	"time (s)" 	499.948056
scalar sim.host[2].batteryStats 	account 	2
scalar sim.host[2].batteryStats 	"energy (mWs)" 	0.415552
scalar sim.host[2].batteryStats 	"time (s)" 	0.051944
scalar sim.host[2].batteryStats 	account 	3
scalar sim.host[2].batteryStats 	"energy (mWs)" 	0
scalar sim.host[2].batteryStats 	"time (s)" 	0
scalar sim.host[2].batteryStats 	account 	4
scalar sim.host[2].batteryStats 	"energy (mWs)" 	0
scalar sim.host[2].batteryStats 	"time (s)" 	0
scalar sim.host[2].appl 	"broadcast queued" 	7
scalar sim.host[2].appl 	"replies sent" 	27
scalar sim.host[2].appl 	"replies received" 	27
scalar sim.host[3].batteryStats 	nominal 	20000
attr unit  mW-s
scalar sim.host[3].batteryStats 	total 	4000
attr unit  mW-s
scalar sim.host[3].batteryStats 	lifetime 	-1
attr unit  s
scalar sim.host[3].batteryStats 	"Mean power consumption" 	8.00000000001
attr unit  mW
scalar sim.host[3].batteryStats 	"num devices" 	1
scalar sim.host[3].batteryStats 	"physical layer" 	0
scalar sim.host[3].batteryStats 	"device total (mWs)" 	4000
scalar sim.host[3].batteryStats 	account 	0
scalar sim.host[3].batteryStats 	"energy (mWs)" 	0
scalar sim.host[3].batteryStats 	"time (s)" 	0
scalar sim.host[3].batteryStats 	account 	1
scalar sim.host[3].batteryStats 	"energy (mWs)" 	3999.332992
scalar sim.host[3].batteryStats 	"time (s)" 	499.916624
scalar sim.host[3].batteryStats 	account 	2
scalar sim.host[3].batteryStats 	"energy (mWs)" 	0.667008
scalar sim.host[3].batteryStats 	"time (s)" 	0.083376
scalar sim.host[3].batteryStats 	account 	3
scalar sim.host[3].batteryStats 	"energy (mWs)" 	0
scalar sim.host[3].batteryStats 	"time (s)" 	0
scalar sim.host[3].batteryStats 	account 	4
scalar sim.host[3].batteryStats 	"energy (mWs)" 	0
scalar sim.host[3].batteryStats 	"time (s)" 	0
scalar sim.host[3].appl 	"broadcast queued" 	7
scalar sim.host[3].appl 	"replies sent" 	45
scalar sim.host[3].appl 	"replies received" 	39
scalar sim.host[4].batteryStats 	nominal 	20000
attr unit  mW-s
scalar sim.host[4].batteryStats 	total 	4000
attr unit  mW-s
scalar sim.host[4].batteryStats 	lifetime 	-1
attr unit  s
scalar sim.host[4].batteryStats 	"Mean power consumption" 	8.00000000001
attr unit  mW
scalar sim.host[4].batteryStats 	"num devices" 	1
scalar sim.host[4].batteryStats 	"physical layer" 	0
scalar sim.host[4].batteryStats 	"device total (mWs)" 	4000
scalar sim.host[4].batteryStats 	account 	0
scalar sim.host[4].batteryStats 	"energy (mWs)" 	0
scalar sim.host[4].batteryStats 	"time (s)" 	0
scalar sim.host[4].batteryStats 	account 	1
scalar sim.host[4].batteryStats 	"energy (mWs)" 	3999.241664
scalar sim.host[4].batteryStats 	"time (s)" 	499.905208
scalar sim.host[4].batteryStats 	account 	2
scalar sim.host[4].batteryStats 	"energy (mWs)" 	0.758336
scalar sim.host[4].batteryStats 	"time (s)" 	0.094792
scalar sim.host[4].batteryStats 	account 	3
scalar sim.host[4].batteryStats 	"energy (mWs)" 	0
scalar sim.host[4].batteryStats 	"time (s)" 	0
scalar sim.host[4].batteryStats 	account 	4
scalar sim.host[4].batteryStats 	"energy (mWs)" 	0
scalar sim.host[4].batteryStats 	"time (s)" 	0
scalar sim.host[4].appl 	"broadcast queued" 	7
scalar sim.host[4].appl 	"replies sent" 	51
scalar sim.host[4].appl 	"replies received" 	48
scalar sim.host[5].batteryStats 	nominal 	20000
attr unit  mW-s
scalar sim.host[5].batteryStats 	total 	4000
attr unit  mW-s
scalar sim.host[5].batteryStats 	lifetime 	-1
attr unit  s
scalar sim.host[5].batteryStats 	"Mean power consumption" 	8.00000000001
attr unit  mW
scalar sim.host[5].batteryStats 	"num devices" 	1
scalar sim.host[5].batteryStats 	"physical layer" 	0
scalar sim.host[5].batteryStats 	"device total (mWs)" 	4000
scalar sim.host[5].batteryStats 	account 	0
scalar sim.host[5].batteryStats 	"energy (mWs)" 	0
scalar sim.host[5].batteryStats 	"time (s)" 	0
scalar sim.host[5].batteryStats 	account 	1
scalar sim.host[5].batteryStats 	"energy (mWs)" 	3999.156416
scalar sim.host[5].batteryStats 	"time (s)" 	499.894552
scalar sim.host[5].batteryStats 	account 	2
scalar sim.host[5].batteryStats 	"energy (mWs)" 	0.843584
scalar sim.host[5].batteryStats 	"time (s)" 	0.105448
scalar sim.host[5].batteryStats 	account 	3
scalar sim.host[5].batteryStats 	"energy (mWs)" 	0
scalar sim.host[5].batteryStats 	"time (s)" 	0
scalar sim.host[5].batteryStats 	account 	4
scalar sim.host[5].batteryStats 	"energy (mWs)" 	0
scalar sim.host[5].batteryStats 	"time (s)" 	0
scalar sim.host[5].appl 	"broadcast queued" 	7
scalar sim.host[5].appl 	"replies sent" 	57
scalar sim.host[5].appl 	"replies received" 	60
scalar sim.host[6].batteryStats 	nominal 	20000
attr unit  mW-s
scalar sim.host[6].batteryStats 	total 	4000
attr unit  mW-s
scalar sim.host[6].batteryStats 	lifetime 	-1
attr unit  s
scalar sim.host[6].batteryStats 	"Mean power consumption" 	8
attr unit  mW
scalar sim.host[6].batteryStats 	"num devices" 	1
scalar sim.host[6].batteryStats 	"physical layer" 	0
scalar sim.host[6].batteryStats 	"device total (mWs)" 	4000
scalar sim.host[6].batteryStats 	account 	0
scalar sim.host[6].batteryStats 	"energy (mWs)" 	0
scalar sim.host[6].batteryStats 	"time (s)" 	0
scalar sim.host[6].batteryStats 	account 	1
scalar sim.host[6].batteryStats 	"energy (mWs)" 	3999.813376
scalar sim.host[6].batteryStats 	"time (s)" 	499.976672
scalar sim.host[6].batteryStats 	account 	2
scalar sim.host[6].batteryStats 	"energy (mWs)" 	0.186624
scalar sim.host[6].batteryStats 	"time (s)" 	0.023328
scalar sim.host[6].batteryStats 	account 	3
scalar sim.host[6].batteryStats 	"energy (mWs)" 	0
scalar sim.host[6].batteryStats 	"time (s)" 	0
scalar sim.host[6].batteryStats 	account 	4
scalar sim.host[6].batteryStats 	"energy (mWs)" 	0
scalar sim.host[6].batteryStats 	"time (s)" 	0
scalar sim.host[6].appl 	"broadcast queued" 	7
scalar sim.host[6].appl 	"replies sent" 	8
scalar sim.host[6].appl 	"replies received" 	7
scalar sim.host[7].batteryStats 	nominal 	20000
attr unit  mW-s
scalar sim.host[7].batteryStats 	total 	4000
attr unit  mW-s
scalar sim.host[7].batteryStats 	lifetime 	-1
attr unit  s
scalar sim.host[7].batteryStats 	"Mean power consumption" 	8.00000000001
attr unit  mW
scalar sim.host[7].batteryStats 	"num devices" 	1
scalar sim.host[7].batteryStats 	"physical layer" 	0
scalar sim.host[7].batteryStats 	"device total (mWs)" 	4000
scalar sim.host[7].batteryStats 	account 	0
scalar sim.host[7].batteryStats 	"energy (mWs)" 	0
scalar sim.host[7].batteryStats 	"time (s)" 	0
scalar sim.host[7].batteryStats 	account 	1
scalar sim.host[7].batteryStats 	"energy (mWs)" 	3999.306688
scalar sim.host[7].batteryStats 	"time (s)" 	499.913336
scalar sim.host[7].batteryStats 	account 	2
scalar sim.host[7].batteryStats 	"energy (mWs)" 	0.693312
scalar sim.host[7].batteryStats 	"time (s)" 	0.086664
scalar sim.host[7].batteryStats 	account 	3
scalar sim.host[7].batteryStats 	"energy (mWs)" 	0
scalar sim.host[7].batteryStats 	"time (s)" 	0
scalar sim.host[7].batteryStats 	account 	4
scalar sim.host[7].batteryStats 	"energy (mWs)" 	0
scalar sim.host[7].batteryStats 	"time (s)" 	0
scalar sim.host[7].appl 	"broadcast queued" 	7
scalar sim.host[7].appl 	"replies sent" 	48
scalar sim.host[7].appl 	"replies received" 	48
scalar sim.host[8].batteryStats 	nominal 	20000
attr unit  mW-s
scalar sim.host[8].batteryStats 	total 	4000
attr unit  mW-s
scalar sim.host[8].batteryStats 	lifetime 	-1
attr unit  s
scalar sim.host[8].batteryStats 	"Mean power consumption" 	8
attr unit  mW
scalar sim.host[8].batteryStats 	"num devices" 	1
scalar sim.host[8].batteryStats 	"physical layer" 	0
scalar sim.host[8].batteryStats 	"device total (mWs)" 	4000
scalar sim.host[8].batteryStats 	account 	0
scalar sim.host[8].batteryStats 	"energy (mWs)" 	0
scalar sim.host[8].batteryStats 	"time (s)" 	0
scalar sim.host[8].batteryStats 	account 	1
scalar sim.host[8].batteryStats 	"energy (mWs)" 	3999.677376
scalar sim.host[8].batteryStats 	"time (s)" 	499.959672
scalar sim.host[8].batteryStats 	account 	2
scalar sim.host[8].batteryStats 	"energy (mWs)" 	0.322624
scalar sim.host[8].batteryStats 	"time (s)" 	0.040328
scalar sim.host[8].batteryStats 	account 	3
scalar sim.host[8].batteryStats 	"energy (mWs)" 	0
scalar sim.host[8].batteryStats 	"time (s)" 	0
scalar sim.host[8].batteryStats 	account 	4
scalar sim.host[8].batteryStats 	"energy (mWs)" 	0
scalar sim.host[8].batteryStats 	"time (s)" 	0
scalar sim.host[8].appl 	"broadcast queued" 	7
scalar sim.host[8].appl 	"replies sent" 	20
scalar sim.host[8].appl 	"replies received" 	21
scalar sim.host[9].batteryStats 	nominal 	20000
attr unit  mW-s
scalar sim.host[9].batteryStats 	total 	4000
attr unit  mW-s
scalar sim.host[9].batteryStats 	lifetime 	-1
attr unit  s
scalar sim.host[9].batteryStats 	"Mean power consumption" 	8.00000000001
attr unit  mW
scalar sim.host[9].batteryStats 	"num devices" 	1
scalar sim.host[9].batteryStats 	"physical layer" 	0
scalar sim.host[9].batteryStats 	"device total (mWs)" 	4000
scalar sim.host[9].batteryStats 	account 	0
scalar sim.host[9].batteryStats 	"energy (mWs)" 	0
scalar sim.host[9].batteryStats 	"time (s)" 	0
scalar sim.host[9].batteryStats 	account 	1
scalar sim.host[9].batteryStats 	"energy (mWs)" 	3999.125376
scalar sim.host[9].batteryStats 	"time (s)" 	499.890672
scalar sim.host[9].batteryStats 	account 	2
scalar sim.host[9].batteryStats 	"energy (mWs)" 	0.874624
scalar sim.host[9].batteryStats 	"time (s)" 	0.109328
scalar sim.host[9].batteryStats 	account 	3
scalar sim.host[9].batteryStats 	"energy (mWs)" 	0
scalar sim.host[9].batteryStats 	"time (s)" 	0
scalar sim.host[9].batteryStats 	account 	4
scalar sim.host[9].batteryStats 	"energy (mWs)" 	0
scalar sim.host[9].batteryStats 	"time (s)" 	0
scalar sim.host[9].appl 	"broadcast queued" 	7
scalar sim.host[9].appl 	"replies sent" 	57
scalar sim.host[9].appl 	"replies received" 	60
scalar sim.host[10].batteryStats 	nominal 	20000
attr unit  mW-s
scalar sim.host[10].batteryStats 	total 	4000
attr unit  mW-s
scalar sim.host[10].batteryStats 	lifetime 	-1
attr unit  s
scalar sim.host[10].batteryStats 	"Mean power consumption" 	8
attr unit  mW
scalar sim.host[10].batteryStats 	"num devices" 	1
scalar sim.host[10].batteryStats 	"physical layer" 	0
scalar sim.host[10].batteryStats 	"device total (mWs)" 	4000
scalar sim.host[10].batteryStats 	account 	0
scalar sim.host[10].batteryStats 	"energy (mWs)" 	0
scalar sim.host[10].batteryStats 	"time (s)" 	0
scalar sim.host[10].batteryStats 	account 	1
scalar sim.host[10].batteryStats 	"energy (mWs)" 	3999.344576
scalar sim.host[10].batteryStats 	"time (s)" 	499.918072
scalar sim.host[10].batteryStats 	account 	2
scalar sim.host[10].batteryStats 	"energy (mWs)" 	0.655424
scalar sim.host[10].batteryStats 	"time (s)" 	0.081928
scalar sim.host[10].batteryStats 	account 	3
scalar sim.host[10].batteryStats 	"energy (mWs)" 	0
scalar sim.host[10].batteryStats 	"time (s)" 	0
scalar sim.host[10].batteryStats 	account 	4
scalar sim.host[10].batteryStats 	"energy (mWs)" 	0
scalar sim.host[10].batteryStats 	"time (s)" 	0
scalar sim.host[10].appl 	"broadcast queued" 	7
scalar sim.host[10].appl 	"replies sent" 	46
scalar sim.host[10].appl 	"replies received" 	43
scalar sim.host[11].batteryStats 	nominal 	20000
attr unit  mW-s
scalar sim.host[11].batteryStats 	total 	4000
attr unit  mW-s
scalar sim.host[11].batteryStats 	lifetime 	-1
attr unit  s
scalar sim.host[11].batteryStats 	"Mean power consumption" 	8.00000000001
attr unit  mW
scalar sim.host[11].batteryStats 	"num devices" 	1
scalar sim.host[11].batteryStats 	"physical layer" 	0
scalar sim.host[11].batteryStats 	"device total (mWs)" 	4000
scalar sim.host[11].batteryStats 	account 	0
scalar sim.host[11].batteryStats 	"energy (mWs)" 	0
scalar sim.host[11].batteryStats 	"time (s)" 	0
scalar sim.host[11].batteryStats 	account 	1
scalar sim.host[11].batteryStats 	"energy (mWs)" 	3999.14272
scalar sim.host[11].batteryStats 	"time (s)" 	499.89284
scalar sim.host[11].batteryStats 	account 	2
scalar sim.host[11].batteryStats 	"energy (mWs)" 	0.85728
scalar sim.host[11].batteryStats 	"time (s)" 	0.10716
scalar sim.host[11].batteryStats 	account 	3
scalar sim.host[11].batteryStats 	"energy (mWs)" 	0
scalar sim.host[11].batteryStats 	"time (s)" 	0
scalar sim.host[11].batteryStats 	account 	4
scalar sim.host[11].batteryStats 	"energy (mWs)" 	0
scalar sim.host[11].batteryStats 	"time (s)" 	0
scalar sim.host[11].appl 	"broadcast queued" 	7
scalar sim.host[11].appl 	"replies sent" 	58
scalar sim.host[11].appl 	"replies received" 	60
scalar sim.host[12].batteryStats 	nominal 	20000
attr unit  mW-s
scalar sim.host[12].batteryStats 	total 	4000
attr unit  mW-s
scalar sim.host[12].batteryStats 	lifetime 	-1
attr unit  s
scalar sim.host[12].batteryStats 	"Mean power consumption" 	8
attr unit  mW
scalar sim.host[12].batteryStats 	"num devices" 	1
scalar sim.host[12].batteryStats 	"physical layer" 	0
scalar sim.host[12].batteryStats 	"device total (mWs)" 	4000
scalar sim.host[12].batteryStats 	account 	0
scalar sim.host[12].batteryStats 	"energy (mWs)" 	0
scalar sim.host[12].batteryStats 	"time (s)" 	0
scalar sim.host[12].batteryStats 	account 	1
scalar sim.host[12].batteryStats 	"energy (mWs)" 	3999.21088
scalar sim.host[12].batteryStats 	"time (s)" 	499.90136
scalar sim.host[12].batteryStats 	account 	2
scalar sim.host[12].batteryStats 	"energy (mWs)" 	0.78912
scalar sim.host[12].batteryStats 	"time (s)" 	0.09864
scalar sim.host[12].batteryStats 	account 	3
scalar sim.host[12].batteryStats 	"energy (mWs)" 	0
scalar sim.host[12].batteryStats 	"time (s)" 	0
scalar sim.host[12].batteryStats 	account 	4
scalar sim.host[12].batteryStats 	"energy (mWs)" 	0
scalar sim.host[12].batteryStats 	"time (s)" 	0
scalar sim.host[12].appl 	"broadcast queued" 	7
scalar sim.host[12].appl 	"replies sent" 	53
scalar sim.host[12].appl 	"replies received" 	56
scalar sim.host[13].batteryStats 	nominal 	20000
attr unit  mW-s
scalar sim.host[13].batteryStats 	total 	4000
attr unit  mW-s
scalar sim.host[13].batteryStats 	lifetime 	-1
attr unit  s
scalar sim.host[13].batteryStats 	"Mean power consumption" 	8
attr unit  mW
scalar sim.host[13].batteryStats 	"num devices" 	1
scalar sim.host[13].batteryStats 	"physical layer" 	0
scalar sim.host[13].batteryStats 	"device total (mWs)" 	4000
scalar sim.host[13].batteryStats 	account 	0
scalar sim.host[13].batteryStats 	"energy (mWs)" 	0
scalar sim.host[13].batteryStats 	"time (s)" 	0
scalar sim.host[13].batteryStats 	account 	1
scalar sim.host[13].batteryStats 	"energy (mWs)" 	3999.195776
scalar sim.host[13].batteryStats 	"time (s)" 	499.899472
scalar sim.host[13].batteryStats 	account 	2
scalar sim.host[13].batteryStats 	"energy (mWs)" 	0.804224
scalar sim.host[13].batteryStats 	"time (s)" 	0.100528
scalar sim.host[13].batteryStats 	account 	3
scalar sim.host[13].batteryStats 	"energy (mWs)" 	0
scalar sim.host[13].batteryStats 	"time (s)" 	0
scalar sim.host[13].batteryStats 	account 	4
scalar sim.host[13].batteryStats 	"energy (mWs)" 	0
scalar sim.host[13].batteryStats 	"time (s)" 	0
scalar sim.host[13].appl 	"broadcast queued" 	7
scalar sim.host[13].appl 	"replies sent" 	51
scalar sim.host[13].appl 	"replies received" 	46
scalar sim.host[14].batteryStats 	nominal 	20000
attr unit  mW-s
scalar sim.host[14].batteryStats 	total 	4000
attr unit  mW-s
scalar sim.host[14].batteryStats 	lifetime 	-1
attr unit  s
scalar sim.host[14].batteryStats 	"Mean power consumption" 	8
attr unit  mW
scalar sim.host[14].batteryStats 	"num devices" 	1
scalar sim.host[14].batteryStats 	"physical layer" 	0
scalar sim.host[14].batteryStats 	"device total (mWs)" 	4000
scalar sim.host[14].batteryStats 	account 	0
scalar sim.host[14].batteryStats 	"energy (mWs)" 	0
scalar sim.host[14].batteryStats 	"time (s)" 	0
scalar sim.host[14].batteryStats 	account 	1
scalar sim.host[14].batteryStats 	"energy (mWs)" 	3999.854592
scalar sim.host[14].batteryStats 	"time (s)" 	499.981824
scalar sim.host[14].batteryStats 	account 	2
scalar sim.host[14].batteryStats 	"energy (mWs)" 	0.145408
scalar sim.host[14].batteryStats 	"time (s)" 	0.018176
scalar sim.host[14].batteryStats 	account 	3
scalar sim.host[14].batteryStats 	"energy (mWs)" 	0
scalar sim.host[14].batteryStats 	"time (s)" 	0
scalar sim.host[14].batteryStats 	account 	4
scalar sim.host[14].batteryStats 	"energy (mWs)" 	0
scalar sim.host[14].batteryStats 	"time (s)" 	0
scalar sim.host[14].appl 	"broadcast queued" 	7
scalar sim.host[14].appl 	"replies sent" 	7
scalar sim.host[14].appl 	"replies received" 	7
scalar sim.host[15].batteryStats 	nominal 	20000
attr unit  mW-s
scalar sim.host[15].batteryStats 	total 	4000
attr unit  mW-s
scalar sim.host[15].batteryStats 	lifetime 	-1
attr unit  s
scalar sim.host[15].batteryStats 	"Mean power consumption" 	8
attr unit  mW
scalar sim.host[15].batteryStats 	"num devices" 	1
scalar sim.host[15].batteryStats 	"physical layer" 	0
scalar sim.host[15].batteryStats 	"device total (mWs)" 	4000
scalar sim.host[15].batteryStats 	account 	0
scalar sim.host[15].batteryStats 	"energy (mWs)" 	0
scalar sim.host[15].batteryStats 	"time (s)" 	0
scalar sim.host[15].batteryStats 	account 	1
scalar sim.host[15].batteryStats 	"energy (mWs)" 	3999.276096
scalar sim.host[15].batteryStats 	"time (s)" 	499.909512
scalar sim.host[15].batteryStats 	account 	2
scalar sim.host[15].batteryStats 	"energy (mWs)" 	0.723904
scalar sim.host[15].batteryStats 	"time (s)" 	0.090488
scalar sim.host[15].batteryStats 	account 	3
scalar sim.host[15].batteryStats 	"energy (mWs)" 	0
scalar sim.host[15].batteryStats 	"time (s)" 	0
scalar sim.host[15].batteryStats 	account 	4
scalar sim.host[15].batteryStats 	"energy (mWs)" 	0
scalar sim.host[15].batteryStats 	"time (s)" 	0
scalar sim.host[15].appl 	"broadcast queued" 	7
scalar sim.host[15].appl 	"replies sent" 	51
scalar sim.host[15].appl 	"replies received" 	44
scalar sim.host[16].batteryStats 	nominal 	20000
attr unit  mW-s
scalar sim.host[16].batteryStats 	total 	4000
attr unit  mW-s
scalar sim.host[16].batteryStats 	lifetime 	-1
attr unit  s
scalar sim.host[16].batteryStats 	"Mean power consumption" 	8
attr unit  mW
scalar sim.host[16].batteryStats 	"num devices" 	1
scalar sim.host[16].batteryStats 	"physical layer" 	0
scalar sim.host[16].batteryStats 	"device total (mWs)" 	4000
scalar sim.host[16].batteryStats 	account 	0
scalar sim.host[16].batteryStats 	"energy (mWs)" 	0
scalar sim.host[16].batteryStats 	"time (s)" 	0
scalar sim.host[16].batteryStats 	account 	1
scalar sim.host[16].batteryStats 	"energy (mWs)" 	3999.28448
scalar sim.host[16].batteryStats 	"time (s)" 	499.91056
scalar sim.host[16].batteryStats 	account 	2
scalar sim.host[16].batteryStats 	"energy (mWs)" 	0.71552
scalar sim.host[16].batteryStats 	"time (s)" 	0.08944
scalar sim.host[16].batteryStats 	account 	3
scalar sim.host[16].batteryStats 	"energy (mWs)" 	0
scalar sim.host[16].batteryStats 	"time (s)" 	0
scalar sim.host[16].batteryStats 	account 	4
scalar sim.host[16].batteryStats 	"energy (mWs)" 	0
scalar sim.host[16].batteryStats 	"time (s)" 	0
scalar sim.host[16].appl 	"broadcast queued" 	7
scalar sim.host[16].appl 	"replies sent" 	47
scalar sim.host[16].appl 	"replies received" 	45
scalar sim.host[17].batteryStats 	nominal 	20000
attr unit  mW-s
scalar sim.host[17].batteryStats 	total 	4000
attr unit  mW-s
scalar sim.host[17].batteryStats 	lifetime 	-1
attr unit  s
scalar sim.host[17].batteryStats 	"Mean power consumption" 	8.00000000001
attr unit  mW
scalar sim.host[17].batteryStats 	"num devices" 	1
scalar sim.host[17].batteryStats 	"physical layer" 	0
scalar sim.host[17].batteryStats 	"device total (mWs)" 	4000
scalar sim.host[17].batteryStats 	account 	0
scalar sim.host[17].batteryStats 	"energy (mWs)" 	0
scalar sim.host[17].batteryStats 	"time (s)" 	0
scalar sim.host[17].batteryStats 	account 	1
scalar sim.host[17].batteryStats 	"energy (mWs)" 	3998.9968
scalar sim.host[17].batteryStats 	"time (s)" 	499.8746
scalar sim.host[17].batteryStats 	account 	2
scalar sim.host[17].batteryStats 	"energy (mWs)" 	1.0032
scalar sim.host[17].batteryStats 	"time (s)" 	0.1254
scalar sim.host[17].batteryStats 	account 	3
scalar sim.host[17].batteryStats 	"energy (mWs)" 	0
scalar sim.host[17].batteryStats 	"time (s)" 	0
scalar sim.host[17].batteryStats 	account 	4
scalar sim.host[17].batteryStats 	"energy (mWs)" 	0
scalar sim.host[17].batteryStats 	"time (s)" 	0
scalar sim.host[17].appl 	"broadcast queued" 	7
scalar sim.host[17].appl 	"replies sent" 	59
scalar sim.host[17].appl 	"replies received" 	60
scalar sim.host[18].batteryStats 	nominal 	20000
attr unit  mW-s
scalar sim.host[18].batteryStats 	total 	4000
attr unit  mW-s
scalar sim.host[18].batteryStats 	lifetime 	-1
attr unit  s
scalar sim.host[18].batteryStats 	"Mean power consumption" 	8
attr unit  mW
scalar sim.host[18].batteryStats 	"num devices" 	1
scalar sim.host[18].batteryStats 	"physical layer" 	0
scalar sim.host[18].batteryStats 	"device total (mWs)" 	4000
scalar sim.host[18].batteryStats 	account 	0
scalar sim.host[18].batteryStats 	"energy (mWs)" 	0
scalar sim.host[18].batteryStats 	"time (s)" 	0
scalar sim.host[18].batteryStats 	account 	1
scalar sim.host[18].batteryStats 	"energy (mWs)" 	3999.315648
scalar sim.host[18].batteryStats 	"time (s)" 	499.914456
scalar sim.host[18].batteryStats 	account 	2
scalar sim.host[18].batteryStats 	"energy (mWs)" 	0.684352
scalar sim.host[18].batteryStats 	"time (s)" 	0.085544
scalar sim.host[18].batteryStats 	account 	3
scalar sim.host[18].batteryStats 	"energy (mWs)" 	0
scalar sim.host[18].batteryStats 	"time (s)" 	0
scalar sim.host[18].batteryStats 	account 	4
scalar sim.host[18].batteryStats 	"energy (mWs)" 	0
scalar sim.host[18].batteryStats 	"time (s)" 	0
scalar sim.host[18].appl 	"broadcast queued" 	7
scalar sim.host[18].appl 	"replies sent" 	46
scalar sim.host[18].appl 	"replies received" 	47
scalar sim.host[19].batteryStats 	nominal 	20000
attr unit  mW-s
scalar sim.host[19].batteryStats 	total 	4000
attr unit  mW-s
scalar sim.host[19].batteryStats 	lifetime 	-1
attr unit  s
scalar sim.host[19].batteryStats 	"Mean power consumption" 	8
attr unit  mW
scalar sim.host[19].batteryStats 	"num devices" 	1
scalar sim.host[19].batteryStats 	"physical layer" 	0
scalar sim.host[19].batteryStats 	"device total (mWs)" 	4000
scalar sim.host[19].batteryStats 	account 	0
scalar sim.host[19].batteryStats 	"energy (mWs)" 	0
scalar sim.host[19].batteryStats 	"time (s)" 	0
scalar sim.host[19].batteryStats 	account 	1
scalar sim.host[19].batteryStats 	"energy (mWs)" 	3999.285056
scalar sim.host[19].batteryStats 	"time (s)" 	499.910632
scalar sim.host[19].batteryStats 	account 	2
scalar sim.host[19].batteryStats 	"energy (mWs)" 	0.714944
scalar sim.host[19].batteryStats 	"time (s)" 	0.089368
scalar sim.host[19].batteryStats 	account 	3
scalar sim.host[19].batteryStats 	"energy (mWs)" 	0
scalar sim.host[19].batteryStats 	"time (s)" 	0
scalar sim.host[19].batteryStats 	account 	4
scalar sim.host[19].batteryStats 	"energy (mWs)" 	0
scalar sim.host[19].batteryStats 	"time (s)" 	0
scalar sim.host[19].appl 	"broadcast queued" 	7
scalar sim.host[19].appl 	"replies sent" 	47
scalar sim.host[19].appl 	"replies received" 	49
