version 2
run Eight-0-20100408-14:36:32-4498
attr configname Eight
attr datetime 20100408-14:36:32
attr experiment Eight
attr inifile omnetpp.ini
attr iterationvars ""
attr iterationvars2 $repetition=0
attr measurement ""
attr network sim
attr processid 4498
attr repetition 0
attr replication #0
attr resultdir results
attr runnumber 0
attr seedset 0

scalar sim.host[0].batteryStats 	nominal 	20000
attr unit  mW-s
scalar sim.host[0].batteryStats 	total 	4000
attr unit  mW-s
scalar sim.host[0].batteryStats 	lifetime 	-1
attr unit  s
scalar sim.host[0].batteryStats 	"Mean power consumption" 	8.00000000001
attr unit  mW
scalar sim.host[0].batteryStats 	"num devices" 	1
scalar sim.host[0].batteryStats 	"physical layer" 	0
scalar sim.host[0].batteryStats 	"device total (mWs)" 	4000
scalar sim.host[0].batteryStats 	account 	0
scalar sim.host[0].batteryStats 	"energy (mWs)" 	0
scalar sim.host[0].batteryStats 	"time (s)" 	0
scalar sim.host[0].batteryStats 	account 	1
scalar sim.host[0].batteryStats 	"energy (mWs)" 	3999.313472
scalar sim.host[0].batteryStats 	"time (s)" 	499.914184
scalar sim.host[0].batteryStats 	account 	2
scalar sim.host[0].batteryStats 	"energy (mWs)" 	0.686528
scalar sim.host[0].batteryStats 	"time (s)" 	0.085816
scalar sim.host[0].batteryStats 	account 	3
scalar sim.host[0].batteryStats 	"energy (mWs)" 	0
scalar sim.host[0].batteryStats 	"time (s)" 	0
scalar sim.host[0].batteryStats 	account 	4
scalar sim.host[0].batteryStats 	"energy (mWs)" 	0
scalar sim.host[0].batteryStats 	"time (s)" 	0
scalar sim.host[0].appl 	"broadcast queued" 	7
scalar sim.host[0].appl 	"replies sent" 	49
scalar sim.host[0].appl 	"replies received" 	48
scalar sim.host[1].batteryStats 	nominal 	20000
attr unit  mW-s
scalar sim.host[1].batteryStats 	total 	4000
attr unit  mW-s
scalar sim.host[1].batteryStats 	lifetime 	-1
attr unit  s
scalar sim.host[1].batteryStats 	"Mean power consumption" 	8
attr unit  mW
scalar sim.host[1].batteryStats 	"num devices" 	1
scalar sim.host[1].batteryStats 	"physical layer" 	0
scalar sim.host[1].batteryStats 	"device total (mWs)" 	4000
scalar sim.host[1].batteryStats 	account 	0
scalar sim.host[1].batteryStats 	"energy (mWs)" 	0
scalar sim.host[1].batteryStats 	"time (s)" 	0
scalar sim.host[1].batteryStats 	account 	1
scalar sim.host[1].batteryStats 	"energy (mWs)" 	3999.465024
scalar sim.host[1].batteryStats 	"time (s)" 	499.933128
scalar sim.host[1].batteryStats 	account 	2
scalar sim.host[1].batteryStats 	"energy (mWs)" 	0.534976
scalar sim.host[1].batteryStats 	"time (s)" 	0.066872
scalar sim.host[1].batteryStats 	account 	3
scalar sim.host[1].batteryStats 	"energy (mWs)" 	0
scalar sim.host[1].batteryStats 	"time (s)" 	0
scalar sim.host[1].batteryStats 	account 	4
scalar sim.host[1].batteryStats 	"energy (mWs)" 	0
scalar sim.host[1].batteryStats 	"time (s)" 	0
scalar sim.host[1].appl 	"broadcast queued" 	7
scalar sim.host[1].appl 	"replies sent" 	34
scalar sim.host[1].appl 	"replies received" 	29
scalar sim.host[2].batteryStats 	nominal 	20000
attr unit  mW-s
scalar sim.host[2].batteryStats 	total 	4000
attr unit  mW-s
scalar sim.host[2].batteryStats 	lifetime 	-1
attr unit  s
scalar sim.host[2].batteryStats 	"Mean power consumption" 	8
attr unit  mW
scalar sim.host[2].batteryStats 	"num devices" 	1
scalar sim.host[2].batteryStats 	"physical layer" 	0
scalar sim.host[2].batteryStats 	"device total (mWs)" 	4000
scalar sim.host[2].batteryStats 	account 	0
scalar sim.host[2].batteryStats 	"energy (mWs)" 	0
scalar sim.host[2].batteryStats 	"time (s)" 	0
scalar sim.host[2].batteryStats 	account 	1
scalar sim.host[2].batteryStats 	"energy (mWs)" 	3999.561216
scalar sim.host[2].batteryStats 	"time (s)" 	499.945152
scalar sim.host[2].batteryStats 	account 	2
scalar sim.host[2].batteryStats 	"energy (mWs)" 	0.438784
scalar sim.host[2].batteryStats 	"time (s)" 	0.054848
scalar sim.host[2].batteryStats 	account 	3
scalar sim.host[2].batteryStats 	"energy (mWs)" 	0
scalar sim.host[2].batteryStats 	"time (s)" 	0
scalar sim.host[2].batteryStats 	account 	4
scalar sim.host[2].batteryStats 	"energy (mWs)" 	0
scalar sim.host[2].batteryStats 	"time (s)" 	0
scalar sim.host[2].appl 	"broadcast queued" 	7
scalar sim.host[2].appl 	"replies sent" 	29
scalar sim.host[2].appl 	"replies received" 	28
scalar sim.host[3].batteryStats 	nominal 	20000
attr unit  mW-s
scalar sim.host[3].batteryStats 	total 	4000
attr unit  mW-s
scalar sim.host[3].batteryStats 	lifetime 	-1
attr unit  s
scalar sim.host[3].batteryStats 	"Mean power consumption" 	8.00000000001
attr unit  mW
scalar sim.host[3].batteryStats 	"num devices" 	1
scalar sim.host[3].batteryStats 	"physical layer" 	0
scalar sim.host[3].batteryStats 	"device total (mWs)" 	4000
scalar sim.host[3].batteryStats 	account 	0
scalar sim.host[3].batteryStats 	"energy (mWs)" 	0
scalar sim.host[3].batteryStats 	"time (s)" 	0
scalar sim.host[3].batteryStats 	account 	1
scalar sim.host[3].batteryStats 	"energy (mWs)" 	3999.202624
scalar sim.host[3].batteryStats 	"time (s)" 	499.900328
scalar sim.host[3].batteryStats 	account 	2
scalar sim.host[3].batteryStats 	"energy (mWs)" 	0.797376
scalar sim.host[3].batteryStats 	"time (s)" 	0.099672
scalar sim.host[3].batteryStats 	account 	3
scalar sim.host[3].batteryStats 	"energy (mWs)" 	0
scalar sim.host[3].batteryStats 	"time (s)" 	0
scalar sim.host[3].batteryStats 	account 	4
scalar sim.host[3].batteryStats 	"energy (mWs)" 	0
scalar sim.host[3].batteryStats 	"time (s)" 	0
scalar sim.host[3].appl 	"broadcast queued" 	7
scalar sim.host[3].appl 	"replies sent" 	52
scalar sim.host[3].appl 	"replies received" 	52
scalar sim.host[4].batteryStats 	nominal 	20000
attr unit  mW-s
scalar sim.host[4].batteryStats 	total 	4000
attr unit  mW-s
scalar sim.host[4].batteryStats 	lifetime 	-1
attr unit  s
scalar sim.host[4].batteryStats 	"Mean power consumption" 	8.00000000001
attr unit  mW
scalar sim.host[4].batteryStats 	"num devices" 	1
scalar sim.host[4].batteryStats 	"physical layer" 	0
scalar sim.host[4].batteryStats 	"device total (mWs)" 	4000
scalar sim.host[4].batteryStats 	account 	0
scalar sim.host[4].batteryStats 	"energy (mWs)" 	0
scalar sim.host[4].batteryStats 	"time (s)" 	0
scalar sim.host[4].batteryStats 	account 	1
scalar sim.host[4].batteryStats 	"energy (mWs)" 	3999.228992
scalar sim.host[4].batteryStats 	"time (s)" 	499.903624
scalar sim.host[4].batteryStats 	account 	2
scalar sim.host[4].batteryStats 	"energy (mWs)" 	0.771008
scalar sim.host[4].batteryStats 	"time (s)" 	0.096376
scalar sim.host[4].batteryStats 	account 	3
scalar sim.host[4].batteryStats 	"energy (mWs)" 	0
scalar sim.host[4].batteryStats 	"time (s)" 	0
scalar sim.host[4].batteryStats 	account 	4
scalar sim.host[4].batteryStats 	"energy (mWs)" 	0
scalar sim.host[4].batteryStats 	"time (s)" 	0
scalar sim.host[4].appl 	"broadcast queued" 	7
scalar sim.host[4].appl 	"replies sent" 	54
scalar sim.host[4].appl 	"replies received" 	55
scalar sim.host[5].batteryStats 	nominal 	20000
attr unit  mW-s
scalar sim.host[5].batteryStats 	total 	4000
attr unit  mW-s
scalar sim.host[5].batteryStats 	lifetime 	-1
attr unit  s
scalar sim.host[5].batteryStats 	"Mean power consumption" 	8.00000000001
attr unit  mW
scalar sim.host[5].batteryStats 	"num devices" 	1
scalar sim.host[5].batteryStats 	"physical layer" 	0
scalar sim.host[5].batteryStats 	"device total (mWs)" 	4000
scalar sim.host[5].batteryStats 	account 	0
scalar sim.host[5].batteryStats 	"energy (mWs)" 	0
scalar sim.host[5].batteryStats 	"time (s)" 	0
scalar sim.host[5].batteryStats 	account 	1
scalar sim.host[5].batteryStats 	"energy (mWs)" 	3999.145408
scalar sim.host[5].batteryStats 	"time (s)" 	499.893176
scalar sim.host[5].batteryStats 	account 	2
scalar sim.host[5].batteryStats 	"energy (mWs)" 	0.854592
scalar sim.host[5].batteryStats 	"time (s)" 	0.106824
scalar sim.host[5].batteryStats 	account 	3
scalar sim.host[5].batteryStats 	"energy (mWs)" 	0
scalar sim.host[5].batteryStats 	"time (s)" 	0
scalar sim.host[5].batteryStats 	account 	4
scalar sim.host[5].batteryStats 	"energy (mWs)" 	0
scalar sim.host[5].batteryStats 	"time (s)" 	0
scalar sim.host[5].appl 	"broadcast queued" 	7
scalar sim.host[5].appl 	"replies sent" 	61
scalar sim.host[5].appl 	"replies received" 	63
scalar sim.host[6].batteryStats 	nominal 	20000
attr unit  mW-s
scalar sim.host[6].batteryStats 	total 	4000
attr unit  mW-s
scalar sim.host[6].batteryStats 	lifetime 	-1
attr unit  s
scalar sim.host[6].batteryStats 	"Mean power consumption" 	8
attr unit  mW
scalar sim.host[6].batteryStats 	"num devices" 	1
scalar sim.host[6].batteryStats 	"physical layer" 	0
scalar sim.host[6].batteryStats 	"device total (mWs)" 	4000
scalar sim.host[6].batteryStats 	account 	0
scalar sim.host[6].batteryStats 	"energy (mWs)" 	0
scalar sim.host[6].batteryStats 	"time (s)" 	0
scalar sim.host[6].batteryStats 	account 	1
scalar sim.host[6].batteryStats 	"energy (mWs)" 	3999.845568
scalar sim.host[6].batteryStats 	"time (s)" 	499.980696
scalar sim.host[6].batteryStats 	account 	2
scalar sim.host[6].batteryStats 	"energy (mWs)" 	0.154432
scalar sim.host[6].batteryStats 	"time (s)" 	0.019304
scalar sim.host[6].batteryStats 	account 	3
scalar sim.host[6].batteryStats 	"energy (mWs)" 	0
scalar sim.host[6].batteryStats 	"time (s)" 	0
scalar sim.host[6].batteryStats 	account 	4
scalar sim.host[6].batteryStats 	"energy (mWs)" 	0
scalar sim.host[6].batteryStats 	"time (s)" 	0
scalar sim.host[6].appl 	"broadcast queued" 	7
scalar sim.host[6].appl 	"replies sent" 	8
scalar sim.host[6].appl 	"replies received" 	7
scalar sim.host[7].batteryStats 	nominal 	20000
attr unit  mW-s
scalar sim.host[7].batteryStats 	total 	4000
attr unit  mW-s
scalar sim.host[7].batteryStats 	lifetime 	-1
attr unit  s
scalar sim.host[7].batteryStats 	"Mean power consumption" 	8.00000000001
attr unit  mW
scalar sim.host[7].batteryStats 	"num devices" 	1
scalar sim.host[7].batteryStats 	"physical layer" 	0
scalar sim.host[7].batteryStats 	"device total (mWs)" 	4000
scalar sim.host[7].batteryStats 	account 	0
scalar sim.host[7].batteryStats 	"energy (mWs)" 	0
scalar sim.host[7].batteryStats 	"time (s)" 	0
scalar sim.host[7].batteryStats 	account 	1
scalar sim.host[7].batteryStats 	"energy (mWs)" 	3999.277696
scalar sim.host[7].batteryStats 	"time (s)" 	499.909712
scalar sim.host[7].batteryStats 	account 	2
scalar sim.host[7].batteryStats 	"energy (mWs)" 	0.722304
scalar sim.host[7].batteryStats 	"time (s)" 	0.090288
scalar sim.host[7].batteryStats 	account 	3
scalar sim.host[7].batteryStats 	"energy (mWs)" 	0
scalar sim.host[7].batteryStats 	"time (s)" 	0
scalar sim.host[7].batteryStats 	account 	4
scalar sim.host[7].batteryStats 	"energy (mWs)" 	0
scalar sim.host[7].batteryStats 	"time (s)" 	0
scalar sim.host[7].appl 	"broadcast queued" 	7
scalar sim.host[7].appl 	"replies sent" 	50
scalar sim.host[7].appl 	"replies received" 	49
scalar sim.host[8].batteryStats 	nominal 	20000
attr unit  mW-s
scalar sim.host[8].batteryStats 	total 	4000
attr unit  mW-s
scalar sim.host[8].batteryStats 	lifetime 	-1
attr unit  s
scalar sim.host[8].batteryStats 	"Mean power consumption" 	8
attr unit  mW
scalar sim.host[8].batteryStats 	"num devices" 	1
scalar sim.host[8].batteryStats 	"physical layer" 	0
scalar sim.host[8].batteryStats 	"device total (mWs)" 	4000
scalar sim.host[8].batteryStats 	account 	0
scalar sim.host[8].batteryStats 	"energy (mWs)" 	0
scalar sim.host[8].batteryStats 	"time (s)" 	0
scalar sim.host[8].batteryStats 	account 	1
scalar sim.host[8].batteryStats 	"energy (mWs)" 	3999.666176
scalar sim.host[8].batteryStats 	"time (s)" 	499.958272
scalar sim.host[8].batteryStats 	account 	2
scalar sim.host[8].batteryStats 	"energy (mWs)" 	0.333824
scalar sim.host[8].batteryStats 	"time (s)" 	0.041728
scalar sim.host[8].batteryStats 	account 	3
scalar sim.host[8].batteryStats 	"energy (mWs)" 	0
scalar sim.host[8].batteryStats 	"time (s)" 	0
scalar sim.host[8].batteryStats 	account 	4
scalar sim.host[8].batteryStats 	"energy (mWs)" 	0
scalar sim.host[8].batteryStats 	"time (s)" 	0
scalar sim.host[8].appl 	"broadcast queued" 	7
scalar sim.host[8].appl 	"replies sent" 	21
scalar sim.host[8].appl 	"replies received" 	21
scalar sim.host[9].batteryStats 	nominal 	20000
attr unit  mW-s
scalar sim.host[9].batteryStats 	total 	4000
attr unit  mW-s
scalar sim.host[9].batteryStats 	lifetime 	-1
attr unit  s
scalar sim.host[9].batteryStats 	"Mean power consumption" 	8.00000000001
attr unit  mW
scalar sim.host[9].batteryStats 	"num devices" 	1
scalar sim.host[9].batteryStats 	"physical layer" 	0
scalar sim.host[9].batteryStats 	"device total (mWs)" 	4000
scalar sim.host[9].batteryStats 	account 	0
scalar sim.host[9].batteryStats 	"energy (mWs)" 	0
scalar sim.host[9].batteryStats 	"time (s)" 	0
scalar sim.host[9].batteryStats 	account 	1
scalar sim.host[9].batteryStats 	"energy (mWs)" 	3999.145472
scalar sim.host[9].batteryStats 	"time (s)" 	499.893184
scalar sim.host[9].batteryStats 	account 	2
scalar sim.host[9].batteryStats 	"energy (mWs)" 	0.854528
scalar sim.host[9].batteryStats 	"time (s)" 	0.106816
scalar sim.host[9].batteryStats 	account 	3
scalar sim.host[9].batteryStats 	"energy (mWs)" 	0
scalar sim.host[9].batteryStats 	"time (s)" 	0
scalar sim.host[9].batteryStats 	account 	4
scalar sim.host[9].batteryStats 	"energy (mWs)" 	0
scalar sim.host[9].batteryStats 	"time (s)" 	0
scalar sim.host[9].appl 	"broadcast queued" 	7
scalar sim.host[9].appl 	"replies sent" 	62
scalar sim.host[9].appl 	"replies received" 	59
scalar sim.host[10].batteryStats 	nominal 	20000
attr unit  mW-s
scalar sim.host[10].batteryStats 	total 	4000
attr unit  mW-s
scalar sim.host[10].batteryStats 	lifetime 	-1
attr unit  s
scalar sim.host[10].batteryStats 	"Mean power consumption" 	8.00000000001
attr unit  mW
scalar sim.host[10].batteryStats 	"num devices" 	1
scalar sim.host[10].batteryStats 	"physical layer" 	0
scalar sim.host[10].batteryStats 	"device total (mWs)" 	4000
scalar sim.host[10].batteryStats 	account 	0
scalar sim.host[10].batteryStats 	"energy (mWs)" 	0
scalar sim.host[10].batteryStats 	"time (s)" 	0
scalar sim.host[10].batteryStats 	account 	1
scalar sim.host[10].batteryStats 	"energy (mWs)" 	3999.315456
scalar sim.host[10].batteryStats 	"time (s)" 	499.914432
scalar sim.host[10].batteryStats 	account 	2
scalar sim.host[10].batteryStats 	"energy (mWs)" 	0.684544
scalar sim.host[10].batteryStats 	"time (s)" 	0.085568
scalar sim.host[10].batteryStats 	account 	3
scalar sim.host[10].batteryStats 	"energy (mWs)" 	0
scalar sim.host[10].batteryStats 	"time (s)" 	0
scalar sim.host[10].batteryStats 	account 	4
scalar sim.host[10].batteryStats 	"energy (mWs)" 	0
scalar sim.host[10].batteryStats 	"time (s)" 	0
scalar sim.host[10].appl 	"broadcast queued" 	7
scalar sim.host[10].appl 	"replies sent" 	49
scalar sim.host[10].appl 	"replies received" 	49
scalar sim.host[11].batteryStats 	nominal 	20000
attr unit  mW-s
scalar sim.host[11].batteryStats 	total 	4000
attr unit  mW-s
scalar sim.host[11].batteryStats 	lifetime 	-1
attr unit  s
scalar sim.host[11].batteryStats 	"Mean power consumption" 	8.00000000001
attr unit  mW
scalar sim.host[11].batteryStats 	"num devices" 	1
scalar sim.host[11].batteryStats 	"physical layer" 	0
scalar sim.host[11].batteryStats 	"device total (mWs)" 	4000
scalar sim.host[11].batteryStats 	account 	0
scalar sim.host[11].batteryStats 	"energy (mWs)" 	0
scalar sim.host[11].batteryStats 	"time (s)" 	0
scalar sim.host[11].batteryStats 	account 	1
scalar sim.host[11].batteryStats 	"energy (mWs)" 	3999.129984
scalar sim.host[11].batteryStats 	"time (s)" 	499.891248
scalar sim.host[11].batteryStats 	account 	2
scalar sim.host[11].batteryStats 	"energy (mWs)" 	0.870016
scalar sim.host[11].batteryStats 	"time (s)" 	0.108752
scalar sim.host[11].batteryStats 	account 	3
scalar sim.host[11].batteryStats 	"energy (mWs)" 	0
scalar sim.host[11].batteryStats 	"time (s)" 	0
scalar sim.host[11].batteryStats 	account 	4
scalar sim.host[11].batteryStats 	"energy (mWs)" 	0
scalar sim.host[11].batteryStats 	"time (s)" 	0
scalar sim.host[11].appl 	"broadcast queued" 	7
scalar sim.host[11].appl 	"replies sent" 	62
scalar sim.host[11].appl 	"replies received" 	62
scalar sim.host[12].batteryStats 	nominal 	20000
attr unit  mW-s
scalar sim.host[12].batteryStats 	total 	4000
attr unit  mW-s
scalar sim.host[12].batteryStats 	lifetime 	-1
attr unit  s
scalar sim.host[12].batteryStats 	"Mean power consumption" 	8
attr unit  mW
scalar sim.host[12].batteryStats 	"num devices" 	1
scalar sim.host[12].batteryStats 	"physical layer" 	0
scalar sim.host[12].batteryStats 	"device total (mWs)" 	4000
scalar sim.host[12].batteryStats 	account 	0
scalar sim.host[12].batteryStats 	"energy (mWs)" 	0
scalar sim.host[12].batteryStats 	"time (s)" 	0
scalar sim.host[12].batteryStats 	account 	1
scalar sim.host[12].batteryStats 	"energy (mWs)" 	3999.21344
scalar sim.host[12].batteryStats 	"time (s)" 	499.90168
scalar sim.host[12].batteryStats 	account 	2
scalar sim.host[12].batteryStats 	"energy (mWs)" 	0.78656
scalar sim.host[12].batteryStats 	"time (s)" 	0.09832
scalar sim.host[12].batteryStats 	account 	3
scalar sim.host[12].batteryStats 	"energy (mWs)" 	0
scalar sim.host[12].batteryStats 	"time (s)" 	0
scalar sim.host[12].batteryStats 	account 	4
scalar sim.host[12].batteryStats 	"energy (mWs)" 	0
scalar sim.host[12].batteryStats 	"time (s)" 	0
scalar sim.host[12].appl 	"broadcast queued" 	7
scalar sim.host[12].appl 	"replies sent" 	55
scalar sim.host[12].appl 	"replies received" 	55
scalar sim.host[13].batteryStats 	nominal 	20000
attr unit  mW-s
scalar sim.host[13].batteryStats 	total 	4000
attr unit  mW-s
scalar sim.host[13].batteryStats 	lifetime 	-1
attr unit  s
scalar sim.host[13].batteryStats 	"Mean power consumption" 	8.00000000001
attr unit  mW
scalar sim.host[13].batteryStats 	"num devices" 	1
scalar sim.host[13].batteryStats 	"physical layer" 	0
scalar sim.host[13].batteryStats 	"device total (mWs)" 	4000
scalar sim.host[13].batteryStats 	account 	0
scalar sim.host[13].batteryStats 	"energy (mWs)" 	0
scalar sim.host[13].batteryStats 	"time (s)" 	0
scalar sim.host[13].batteryStats 	account 	1
scalar sim.host[13].batteryStats 	"energy (mWs)" 	3999.20736
scalar sim.host[13].batteryStats 	"time (s)" 	499.90092
scalar sim.host[13].batteryStats 	account 	2
scalar sim.host[13].batteryStats 	"energy (mWs)" 	0.79264
scalar sim.host[13].batteryStats 	"time (s)" 	0.09908
scalar sim.host[13].batteryStats 	account 	3
scalar sim.host[13].batteryStats 	"energy (mWs)" 	0
scalar sim.host[13].batteryStats 	"time (s)" 	0
scalar sim.host[13].batteryStats 	account 	4
scalar sim.host[13].batteryStats 	"energy (mWs)" 	0
scalar sim.host[13].batteryStats 	"time (s)" 	0
scalar sim.host[13].appl 	"broadcast queued" 	7
scalar sim.host[13].appl 	"replies sent" 	54
scalar sim.host[13].appl 	"replies received" 	52
scalar sim.host[14].batteryStats 	nominal 	20000
attr unit  mW-s
scalar sim.host[14].batteryStats 	total 	4000
attr unit  mW-s
scalar sim.host[14].batteryStats 	lifetime 	-1
attr unit  s
scalar sim.host[14].batteryStats 	"Mean power consumption" 	8
attr unit  mW
scalar sim.host[14].batteryStats 	"num devices" 	1
scalar sim.host[14].batteryStats 	"physical layer" 	0
scalar sim.host[14].batteryStats 	"device total (mWs)" 	4000
scalar sim.host[14].batteryStats 	account 	0
scalar sim.host[14].batteryStats 	"energy (mWs)" 	0
scalar sim.host[14].batteryStats 	"time (s)" 	0
scalar sim.host[14].batteryStats 	account 	1
scalar sim.host[14].batteryStats 	"energy (mWs)" 	3999.856768
scalar sim.host[14].batteryStats 	"time (s)" 	499.982096
scalar sim.host[14].batteryStats 	account 	2
scalar sim.host[14].batteryStats 	"energy (mWs)" 	0.143232
scalar sim.host[14].batteryStats 	"time (s)" 	0.017904
scalar sim.host[14].batteryStats 	account 	3
scalar sim.host[14].batteryStats 	"energy (mWs)" 	0
scalar sim.host[14].batteryStats 	"time (s)" 	0
scalar sim.host[14].batteryStats 	account 	4
scalar sim.host[14].batteryStats 	"energy (mWs)" 	0
scalar sim.host[14].batteryStats 	"time (s)" 	0
scalar sim.host[14].appl 	"broadcast queued" 	7
scalar sim.host[14].appl 	"replies sent" 	7
scalar sim.host[14].appl 	"replies received" 	7
scalar sim.host[15].batteryStats 	nominal 	20000
attr unit  mW-s
scalar sim.host[15].batteryStats 	total 	4000
attr unit  mW-s
scalar sim.host[15].batteryStats 	lifetime 	-1
attr unit  s
scalar sim.host[15].batteryStats 	"Mean power consumption" 	8
attr unit  mW
scalar sim.host[15].batteryStats 	"num devices" 	1
scalar sim.host[15].batteryStats 	"physical layer" 	0
scalar sim.host[15].batteryStats 	"device total (mWs)" 	4000
scalar sim.host[15].batteryStats 	account 	0
scalar sim.host[15].batteryStats 	"energy (mWs)" 	0
scalar sim.host[15].batteryStats 	"time (s)" 	0
scalar sim.host[15].batteryStats 	account 	1
scalar sim.host[15].batteryStats 	"energy (mWs)" 	3999.271872
scalar sim.host[15].batteryStats 	"time (s)" 	499.908984
scalar sim.host[15].batteryStats 	account 	2
scalar sim.host[15].batteryStats 	"energy (mWs)" 	0.728128
scalar sim.host[15].batteryStats 	"time (s)" 	0.091016
scalar sim.host[15].batteryStats 	account 	3
scalar sim.host[15].batteryStats 	"energy (mWs)" 	0
scalar sim.host[15].batteryStats 	"time (s)" 	0
scalar sim.host[15].batteryStats 	account 	4
scalar sim.host[15].batteryStats 	"energy (mWs)" 	0
scalar sim.host[15].batteryStats 	"time (s)" 	0
scalar sim.host[15].appl 	"broadcast queued" 	7
scalar sim.host[15].appl 	"replies sent" 	51
scalar sim.host[15].appl 	"replies received" 	52
scalar sim.host[16].batteryStats 	nominal 	20000
attr unit  mW-s
scalar sim.host[16].batteryStats 	total 	4000
attr unit  mW-s
scalar sim.host[16].batteryStats 	lifetime 	-1
attr unit  s
scalar sim.host[16].batteryStats 	"Mean power consumption" 	8
attr unit  mW
scalar sim.host[16].batteryStats 	"num devices" 	1
scalar sim.host[16].batteryStats 	"physical layer" 	0
scalar sim.host[16].batteryStats 	"device total (mWs)" 	4000
scalar sim.host[16].batteryStats 	account 	0
scalar sim.host[16].batteryStats 	"energy (mWs)" 	0
scalar sim.host[16].batteryStats 	"time (s)" 	0
scalar sim.host[16].batteryStats 	account 	1
scalar sim.host[16].batteryStats 	"energy (mWs)" 	3999.336448
scalar sim.host[16].batteryStats 	"time (s)" 	499.917056
scalar sim.host[16].batteryStats 	account 	2
scalar sim.host[16].batteryStats 	"energy (mWs)" 	0.663552
scalar sim.host[16].batteryStats 	"time (s)" 	0.082944
scalar sim.host[16].batteryStats 	account 	3
scalar sim.host[16].batteryStats 	"energy (mWs)" 	0
scalar sim.host[16].batteryStats 	"time (s)" 	0
scalar sim.host[16].batteryStats 	account 	4
scalar sim.host[16].batteryStats 	"energy (mWs)" 	0
scalar sim.host[16].batteryStats 	"time (s)" 	0
scalar sim.host[16].appl 	"broadcast queued" 	7
scalar sim.host[16].appl 	"replies sent" 	46
scalar sim.host[16].appl 	"replies received" 	48
scalar sim.host[17].batteryStats 	nominal 	20000
attr unit  mW-s
scalar sim.host[17].batteryStats 	total 	4000
attr unit  mW-s
scalar sim.host[17].batteryStats 	lifetime 	-1
attr unit  s
scalar sim.host[17].batteryStats 	"Mean power consumption" 	8.00000000001
attr unit  mW
scalar sim.host[17].batteryStats 	"num devices" 	1
scalar sim.host[17].batteryStats 	"physical layer" 	0
scalar sim.host[17].batteryStats 	"device total (mWs)" 	4000
scalar sim.host[17].batteryStats 	account 	0
scalar sim.host[17].batteryStats 	"energy (mWs)" 	0
scalar sim.host[17].batteryStats 	"time (s)" 	0
scalar sim.host[17].batteryStats 	account 	1
scalar sim.host[17].batteryStats 	"energy (mWs)" 	3998.974528
scalar sim.host[17].batteryStats 	"time (s)" 	499.871816
scalar sim.host[17].batteryStats 	account 	2
scalar sim.host[17].batteryStats 	"energy (mWs)" 	1.025472
scalar sim.host[17].batteryStats 	"time (s)" 	0.128184
scalar sim.host[17].batteryStats 	account 	3
scalar sim.host[17].batteryStats 	"energy (mWs)" 	0
scalar sim.host[17].batteryStats 	"time (s)" 	0
scalar sim.host[17].batteryStats 	account 	4
scalar sim.host[17].batteryStats 	"energy (mWs)" 	0
scalar sim.host[17].batteryStats 	"time (s)" 	0
scalar sim.host[17].appl 	"broadcast queued" 	7
scalar sim.host[17].appl 	"replies sent" 	67
scalar sim.host[17].appl 	"replies received" 	57
scalar sim.host[18].batteryStats 	nominal 	20000
attr unit  mW-s
scalar sim.host[18].batteryStats 	total 	4000
attr unit  mW-s
scalar sim.host[18].batteryStats 	lifetime 	-1
attr unit  s
scalar sim.host[18].batteryStats 	"Mean power consumption" 	8.00000000001
attr unit  mW
scalar sim.host[18].batteryStats 	"num devices" 	1
scalar sim.host[18].batteryStats 	"physical layer" 	0
scalar sim.host[18].batteryStats 	"device total (mWs)" 	4000
scalar sim.host[18].batteryStats 	account 	0
scalar sim.host[18].batteryStats 	"energy (mWs)" 	0
scalar sim.host[18].batteryStats 	"time (s)" 	0
scalar sim.host[18].batteryStats 	account 	1
scalar sim.host[18].batteryStats 	"energy (mWs)" 	3999.315456
scalar sim.host[18].batteryStats 	"time (s)" 	499.914432
scalar sim.host[18].batteryStats 	account 	2
scalar sim.host[18].batteryStats 	"energy (mWs)" 	0.684544
scalar sim.host[18].batteryStats 	"time (s)" 	0.085568
scalar sim.host[18].batteryStats 	account 	3
scalar sim.host[18].batteryStats 	"energy (mWs)" 	0
scalar sim.host[18].batteryStats 	"time (s)" 	0
scalar sim.host[18].batteryStats 	account 	4
scalar sim.host[18].batteryStats 	"energy (mWs)" 	0
scalar sim.host[18].batteryStats 	"time (s)" 	0
scalar sim.host[18].appl 	"broadcast queued" 	7
scalar sim.host[18].appl 	"replies sent" 	49
scalar sim.host[18].appl 	"replies received" 	49
scalar sim.host[19].batteryStats 	nominal 	20000
attr unit  mW-s
scalar sim.host[19].batteryStats 	total 	4000
attr unit  mW-s
scalar sim.host[19].batteryStats 	lifetime 	-1
attr unit  s
scalar sim.host[19].batteryStats 	"Mean power consumption" 	8.00000000001
attr unit  mW
scalar sim.host[19].batteryStats 	"num devices" 	1
scalar sim.host[19].batteryStats 	"physical layer" 	0
scalar sim.host[19].batteryStats 	"device total (mWs)" 	4000
scalar sim.host[19].batteryStats 	account 	0
scalar sim.host[19].batteryStats 	"energy (mWs)" 	0
scalar sim.host[19].batteryStats 	"time (s)" 	0
scalar sim.host[19].batteryStats 	account 	1
scalar sim.host[19].batteryStats 	"energy (mWs)" 	3999.299904
scalar sim.host[19].batteryStats 	"time (s)" 	499.912488
scalar sim.host[19].batteryStats 	account 	2
scalar sim.host[19].batteryStats 	"energy (mWs)" 	0.700096
scalar sim.host[19].batteryStats 	"time (s)" 	0.087512
scalar sim.host[19].batteryStats 	account 	3
scalar sim.host[19].batteryStats 	"energy (mWs)" 	0
scalar sim.host[19].batteryStats 	"time (s)" 	0
scalar sim.host[19].batteryStats 	account 	4
scalar sim.host[19].batteryStats 	"energy (mWs)" 	0
scalar sim.host[19].batteryStats 	"time (s)" 	0
scalar sim.host[19].appl 	"broadcast queued" 	7
scalar sim.host[19].appl 	"replies sent" 	50
scalar sim.host[19].appl 	"replies received" 	49
