version 2
run Five-0-20100408-14:36:27-4495
attr configname Five
attr datetime 20100408-14:36:27
attr experiment Five
attr inifile omnetpp.ini
attr iterationvars ""
attr iterationvars2 $repetition=0
attr measurement ""
attr network sim
attr processid 4495
attr repetition 0
attr replication #0
attr resultdir results
attr runnumber 0
attr seedset 0

scalar sim.host[2].appl 	HostState::FAILED 	3.18465969334
scalar sim.host[0].batteryStats 	nominal 	3600
attr unit  mW-s
scalar sim.host[0].batteryStats 	total 	1116.54328
attr unit  mW-s
scalar sim.host[0].batteryStats 	lifetime 	-1
attr unit  s
scalar sim.host[0].batteryStats 	"Mean power consumption" 	111.654328
attr unit  mW
scalar sim.host[0].batteryStats 	"num devices" 	1
scalar sim.host[0].batteryStats 	"physical layer" 	0
scalar sim.host[0].batteryStats 	"device total (mWs)" 	1116.54328
scalar sim.host[0].batteryStats 	account 	0
scalar sim.host[0].batteryStats 	"energy (mWs)" 	0
scalar sim.host[0].batteryStats 	"time (s)" 	0
scalar sim.host[0].batteryStats 	account 	1
scalar sim.host[0].batteryStats 	"energy (mWs)" 	47.14648
scalar sim.host[0].batteryStats 	"time (s)" 	9.429296
scalar sim.host[0].batteryStats 	account 	2
scalar sim.host[0].batteryStats 	"energy (mWs)" 	520.8
scalar sim.host[0].batteryStats 	"time (s)" 	0.248
scalar sim.host[0].batteryStats 	account 	3
scalar sim.host[0].batteryStats 	"energy (mWs)" 	0
scalar sim.host[0].batteryStats 	"time (s)" 	0
scalar sim.host[0].batteryStats 	account 	4
scalar sim.host[0].batteryStats 	"energy (mWs)" 	548.5968
scalar sim.host[0].batteryStats 	"time (s)" 	0.322704
scalar sim.host[0].appl 	"broadcast queued" 	100
scalar sim.host[0].appl 	"replies sent" 	100
scalar sim.host[0].appl 	"replies received" 	100
scalar sim.host[1].batteryStats 	nominal 	3600
attr unit  mW-s
scalar sim.host[1].batteryStats 	total 	1125.66968
attr unit  mW-s
scalar sim.host[1].batteryStats 	lifetime 	-1
attr unit  s
scalar sim.host[1].batteryStats 	"Mean power consumption" 	112.566968
attr unit  mW
scalar sim.host[1].batteryStats 	"num devices" 	1
scalar sim.host[1].batteryStats 	"physical layer" 	0
scalar sim.host[1].batteryStats 	"device total (mWs)" 	1125.66968
scalar sim.host[1].batteryStats 	account 	0
scalar sim.host[1].batteryStats 	"energy (mWs)" 	0
scalar sim.host[1].batteryStats 	"time (s)" 	0
scalar sim.host[1].batteryStats 	account 	1
scalar sim.host[1].batteryStats 	"energy (mWs)" 	47.14648
scalar sim.host[1].batteryStats 	"time (s)" 	9.429296
scalar sim.host[1].batteryStats 	account 	2
scalar sim.host[1].batteryStats 	"energy (mWs)" 	568.7136
scalar sim.host[1].batteryStats 	"time (s)" 	0.270816
scalar sim.host[1].batteryStats 	account 	3
scalar sim.host[1].batteryStats 	"energy (mWs)" 	0
scalar sim.host[1].batteryStats 	"time (s)" 	0
scalar sim.host[1].batteryStats 	account 	4
scalar sim.host[1].batteryStats 	"energy (mWs)" 	509.8096
scalar sim.host[1].batteryStats 	"time (s)" 	0.299888
scalar sim.host[1].appl 	"broadcast queued" 	100
scalar sim.host[1].appl 	"replies sent" 	100
scalar sim.host[1].appl 	"replies received" 	146
scalar sim.host[2].batteryStats 	nominal 	360
attr unit  mW-s
scalar sim.host[2].batteryStats 	total 	361.020138467
attr unit  mW-s
scalar sim.host[2].batteryStats 	lifetime 	3.18465969334
attr unit  s
scalar sim.host[2].batteryStats 	"Mean power consumption" 	36.1020138467
attr unit  mW
scalar sim.host[2].batteryStats 	"num devices" 	1
scalar sim.host[2].batteryStats 	"physical layer" 	0
scalar sim.host[2].batteryStats 	"device total (mWs)" 	361.020138467
scalar sim.host[2].batteryStats 	account 	0
scalar sim.host[2].batteryStats 	"energy (mWs)" 	0
scalar sim.host[2].batteryStats 	"time (s)" 	0
scalar sim.host[2].batteryStats 	account 	1
scalar sim.host[2].batteryStats 	"energy (mWs)" 	14.9665384667
scalar sim.host[2].batteryStats 	"time (s)" 	2.99330769334
scalar sim.host[2].batteryStats 	account 	2
scalar sim.host[2].batteryStats 	"energy (mWs)" 	108.9648
scalar sim.host[2].batteryStats 	"time (s)" 	0.051888
scalar sim.host[2].batteryStats 	account 	3
scalar sim.host[2].batteryStats 	"energy (mWs)" 	0
scalar sim.host[2].batteryStats 	"time (s)" 	0
scalar sim.host[2].batteryStats 	account 	4
scalar sim.host[2].batteryStats 	"energy (mWs)" 	237.0888
scalar sim.host[2].batteryStats 	"time (s)" 	0.139464
scalar sim.host[2].appl 	"broadcast queued" 	0
scalar sim.host[2].appl 	"replies sent" 	49
scalar sim.host[2].appl 	"replies received" 	0
