version 2
run Five-0-20090820-14:23:36-2609
attr configname Five
attr datetime 20090820-14:23:36
attr experiment Five
attr inifile omnetpp.ini
attr iterationvars ""
attr iterationvars2 $repetition=0
attr measurement ""
attr network sim
attr processid 2609
attr repetition 0
attr replication #0
attr resultdir results
attr runnumber 0
attr seedset 0

scalar "sim.host[2].appl" 	"HostState::FAILED" 	1.23703573614
scalar "sim.host[0].batteryStats" 	"nominal (mW-s)" 	3600
scalar "sim.host[0].batteryStats" 	"total (mW-s)" 	1095.00688
scalar "sim.host[0].batteryStats" 	"lifetime(s) (-1 == non-failed)" 	-1
scalar "sim.host[0].batteryStats" 	"num devices" 	1
scalar "sim.host[0].batteryStats" 	"80211Nic" 	0
scalar "sim.host[0].batteryStats" 	"device total (mWs)" 	1095.00688
scalar "sim.host[0].batteryStats" 	"account" 	0
scalar "sim.host[0].batteryStats" 	"energy (mWs)" 	0
scalar "sim.host[0].batteryStats" 	"time (s)" 	0
scalar "sim.host[0].batteryStats" 	"account" 	1
scalar "sim.host[0].batteryStats" 	"energy (mWs)" 	47.22768
scalar "sim.host[0].batteryStats" 	"time (s)" 	9.445536
scalar "sim.host[0].batteryStats" 	"account" 	2
scalar "sim.host[0].batteryStats" 	"energy (mWs)" 	495.5296
scalar "sim.host[0].batteryStats" 	"time (s)" 	0.291488
scalar "sim.host[0].batteryStats" 	"account" 	3
scalar "sim.host[0].batteryStats" 	"energy (mWs)" 	552.2496
scalar "sim.host[0].batteryStats" 	"time (s)" 	0.262976
scalar "sim.host[0].appl" 	"broadcast queued" 	100
scalar "sim.host[0].appl" 	"replies sent" 	92
scalar "sim.host[0].appl" 	"replies received" 	144
scalar "sim.host[1].batteryStats" 	"nominal (mW-s)" 	3600
scalar "sim.host[1].batteryStats" 	"total (mW-s)" 	1086.05968
scalar "sim.host[1].batteryStats" 	"lifetime(s) (-1 == non-failed)" 	-1
scalar "sim.host[1].batteryStats" 	"num devices" 	1
scalar "sim.host[1].batteryStats" 	"80211Nic" 	0
scalar "sim.host[1].batteryStats" 	"device total (mWs)" 	1086.05968
scalar "sim.host[1].batteryStats" 	"account" 	0
scalar "sim.host[1].batteryStats" 	"energy (mWs)" 	0
scalar "sim.host[1].batteryStats" 	"time (s)" 	0
scalar "sim.host[1].batteryStats" 	"account" 	1
scalar "sim.host[1].batteryStats" 	"energy (mWs)" 	47.22768
scalar "sim.host[1].batteryStats" 	"time (s)" 	9.445536
scalar "sim.host[1].batteryStats" 	"account" 	2
scalar "sim.host[1].batteryStats" 	"energy (mWs)" 	533.5552
scalar "sim.host[1].batteryStats" 	"time (s)" 	0.313856
scalar "sim.host[1].batteryStats" 	"account" 	3
scalar "sim.host[1].batteryStats" 	"energy (mWs)" 	505.2768
scalar "sim.host[1].batteryStats" 	"time (s)" 	0.240608
scalar "sim.host[1].appl" 	"broadcast queued" 	100
scalar "sim.host[1].appl" 	"replies sent" 	96
scalar "sim.host[1].appl" 	"replies received" 	92
scalar "sim.host[2].batteryStats" 	"nominal (mW-s)" 	360
scalar "sim.host[2].batteryStats" 	"total (mW-s)" 	360.566098681
scalar "sim.host[2].batteryStats" 	"lifetime(s) (-1 == non-failed)" 	1.23703573614
scalar "sim.host[2].batteryStats" 	"num devices" 	1
scalar "sim.host[2].batteryStats" 	"80211Nic" 	0
scalar "sim.host[2].batteryStats" 	"device total (mWs)" 	360.566098681
scalar "sim.host[2].batteryStats" 	"account" 	0
scalar "sim.host[2].batteryStats" 	"energy (mWs)" 	0
scalar "sim.host[2].batteryStats" 	"time (s)" 	0
scalar "sim.host[2].batteryStats" 	"account" 	1
scalar "sim.host[2].batteryStats" 	"energy (mWs)" 	5.2052986807
scalar "sim.host[2].batteryStats" 	"time (s)" 	1.04105973614
scalar "sim.host[2].batteryStats" 	"account" 	2
scalar "sim.host[2].batteryStats" 	"energy (mWs)" 	238.8024
scalar "sim.host[2].batteryStats" 	"time (s)" 	0.140472
scalar "sim.host[2].batteryStats" 	"account" 	3
scalar "sim.host[2].batteryStats" 	"energy (mWs)" 	116.5584
scalar "sim.host[2].batteryStats" 	"time (s)" 	0.055504
scalar "sim.host[2].appl" 	"broadcast queued" 	0
scalar "sim.host[2].appl" 	"replies sent" 	48
scalar "sim.host[2].appl" 	"replies received" 	0