version 2
run Five-0-20110329-15:17:52-9091
attr configname Five
attr datetime 20110329-15:17:52
attr experiment Five
attr inifile omnetpp.ini
attr iterationvars ""
attr iterationvars2 $repetition=0
attr measurement ""
attr network sim
attr processid 9091
attr repetition 0
attr replication #0
attr resultdir results
attr runnumber 0
attr seedset 0

scalar sim.host[2].appl 	HostState::FAILED 	3.18509308438
scalar sim.host[0].batteryStats 	nominal 	3600
attr unit  mW-s
scalar sim.host[0].batteryStats 	total 	1058.95384
attr unit  mW-s
scalar sim.host[0].batteryStats 	lifetime 	-1
attr unit  s
scalar sim.host[0].batteryStats 	"Mean power consumption" 	105.895384
attr unit  mW
scalar sim.host[0].batteryStats 	"num devices" 	1
scalar sim.host[0].batteryStats 	"physical layer" 	0
scalar sim.host[0].batteryStats 	"device total (mWs)" 	1058.95384
scalar sim.host[0].batteryStats 	account 	0
scalar sim.host[0].batteryStats 	"energy (mWs)" 	0
scalar sim.host[0].batteryStats 	"time (s)" 	0
scalar sim.host[0].batteryStats 	account 	1
scalar sim.host[0].batteryStats 	"energy (mWs)" 	47.30424
scalar sim.host[0].batteryStats 	"time (s)" 	9.460848
scalar sim.host[0].batteryStats 	account 	2
scalar sim.host[0].batteryStats 	"energy (mWs)" 	499.2288
scalar sim.host[0].batteryStats 	"time (s)" 	0.237728
scalar sim.host[0].batteryStats 	account 	3
scalar sim.host[0].batteryStats 	"energy (mWs)" 	0
scalar sim.host[0].batteryStats 	"time (s)" 	0
scalar sim.host[0].batteryStats 	account 	4
scalar sim.host[0].batteryStats 	"energy (mWs)" 	512.4208
scalar sim.host[0].batteryStats 	"time (s)" 	0.301424
scalar sim.host[0].appl 	"broadcast queued" 	100
scalar sim.host[0].appl 	"replies sent" 	90
scalar sim.host[0].appl 	"replies received" 	96
scalar sim.host[1].batteryStats 	nominal 	3600
attr unit  mW-s
scalar sim.host[1].batteryStats 	total 	1073.91688
attr unit  mW-s
scalar sim.host[1].batteryStats 	lifetime 	-1
attr unit  s
scalar sim.host[1].batteryStats 	"Mean power consumption" 	107.391688
attr unit  mW
scalar sim.host[1].batteryStats 	"num devices" 	1
scalar sim.host[1].batteryStats 	"physical layer" 	0
scalar sim.host[1].batteryStats 	"device total (mWs)" 	1073.91688
scalar sim.host[1].batteryStats 	account 	0
scalar sim.host[1].batteryStats 	"energy (mWs)" 	0
scalar sim.host[1].batteryStats 	"time (s)" 	0
scalar sim.host[1].batteryStats 	account 	1
scalar sim.host[1].batteryStats 	"energy (mWs)" 	47.28808
scalar sim.host[1].batteryStats 	"time (s)" 	9.457616
scalar sim.host[1].batteryStats 	account 	2
scalar sim.host[1].batteryStats 	"energy (mWs)" 	549.024
scalar sim.host[1].batteryStats 	"time (s)" 	0.26144
scalar sim.host[1].batteryStats 	account 	3
scalar sim.host[1].batteryStats 	"energy (mWs)" 	0
scalar sim.host[1].batteryStats 	"time (s)" 	0
scalar sim.host[1].batteryStats 	account 	4
scalar sim.host[1].batteryStats 	"energy (mWs)" 	477.6048
scalar sim.host[1].batteryStats 	"time (s)" 	0.280944
scalar sim.host[1].appl 	"broadcast queued" 	100
scalar sim.host[1].appl 	"replies sent" 	96
scalar sim.host[1].appl 	"replies received" 	134
scalar sim.host[2].batteryStats 	nominal 	360
attr unit  mW-s
scalar sim.host[2].batteryStats 	total 	360.013345422
attr unit  mW-s
scalar sim.host[2].batteryStats 	lifetime 	3.18509308438
attr unit  s
scalar sim.host[2].batteryStats 	"Mean power consumption" 	36.0013345422
attr unit  mW
scalar sim.host[2].batteryStats 	"num devices" 	1
scalar sim.host[2].batteryStats 	"physical layer" 	0
scalar sim.host[2].batteryStats 	"device total (mWs)" 	360.013345422
scalar sim.host[2].batteryStats 	account 	0
scalar sim.host[2].batteryStats 	"energy (mWs)" 	0
scalar sim.host[2].batteryStats 	"time (s)" 	0
scalar sim.host[2].batteryStats 	account 	1
scalar sim.host[2].batteryStats 	"energy (mWs)" 	14.9709454219
scalar sim.host[2].batteryStats 	"time (s)" 	2.99418908438
scalar sim.host[2].batteryStats 	account 	2
scalar sim.host[2].batteryStats 	"energy (mWs)" 	107.6544
scalar sim.host[2].batteryStats 	"time (s)" 	0.051264
scalar sim.host[2].batteryStats 	account 	3
scalar sim.host[2].batteryStats 	"energy (mWs)" 	0
scalar sim.host[2].batteryStats 	"time (s)" 	0
scalar sim.host[2].batteryStats 	account 	4
scalar sim.host[2].batteryStats 	"energy (mWs)" 	237.388
scalar sim.host[2].batteryStats 	"time (s)" 	0.13964
scalar sim.host[2].appl 	"broadcast queued" 	0
scalar sim.host[2].appl 	"replies sent" 	45
scalar sim.host[2].appl 	"replies received" 	0
