version 2
run Four-0-20090820-14:09:23-28370
attr configname Four
attr datetime 20090820-14:09:23
attr experiment Four
attr inifile omnetpp.ini
attr iterationvars ""
attr iterationvars2 $repetition=0
attr measurement ""
attr network sim
attr processid 28370
attr repetition 0
attr replication #0
attr resultdir results
attr runnumber 0
attr seedset 0

scalar "sim.host[0].batteryStats" 	"nominal (mW-s)" 	3600
scalar "sim.host[0].batteryStats" 	"total (mW-s)" 	2186.83524
scalar "sim.host[0].batteryStats" 	"lifetime(s) (-1 == non-failed)" 	-1
scalar "sim.host[0].batteryStats" 	"num devices" 	1
scalar "sim.host[0].batteryStats" 	"80211Nic" 	0
scalar "sim.host[0].batteryStats" 	"device total (mWs)" 	2186.83524
scalar "sim.host[0].batteryStats" 	"account" 	0
scalar "sim.host[0].batteryStats" 	"energy (mWs)" 	0
scalar "sim.host[0].batteryStats" 	"time (s)" 	0
scalar "sim.host[0].batteryStats" 	"account" 	1
scalar "sim.host[0].batteryStats" 	"energy (mWs)" 	44.16404
scalar "sim.host[0].batteryStats" 	"time (s)" 	8.832808
scalar "sim.host[0].batteryStats" 	"account" 	2
scalar "sim.host[0].batteryStats" 	"energy (mWs)" 	1310.836
scalar "sim.host[0].batteryStats" 	"time (s)" 	0.77108
scalar "sim.host[0].batteryStats" 	"account" 	3
scalar "sim.host[0].batteryStats" 	"energy (mWs)" 	831.8352
scalar "sim.host[0].batteryStats" 	"time (s)" 	0.396112
scalar "sim.host[0].appl" 	"broadcast queued" 	100
scalar "sim.host[0].appl" 	"replies sent" 	188
scalar "sim.host[0].appl" 	"replies received" 	192
scalar "sim.host[1].batteryStats" 	"nominal (mW-s)" 	3600
scalar "sim.host[1].batteryStats" 	"total (mW-s)" 	2185.94228
scalar "sim.host[1].batteryStats" 	"lifetime(s) (-1 == non-failed)" 	-1
scalar "sim.host[1].batteryStats" 	"num devices" 	1
scalar "sim.host[1].batteryStats" 	"80211Nic" 	0
scalar "sim.host[1].batteryStats" 	"device total (mWs)" 	2185.94228
scalar "sim.host[1].batteryStats" 	"account" 	0
scalar "sim.host[1].batteryStats" 	"energy (mWs)" 	0
scalar "sim.host[1].batteryStats" 	"time (s)" 	0
scalar "sim.host[1].batteryStats" 	"account" 	1
scalar "sim.host[1].batteryStats" 	"energy (mWs)" 	44.16068
scalar "sim.host[1].batteryStats" 	"time (s)" 	8.832136
scalar "sim.host[1].batteryStats" 	"account" 	2
scalar "sim.host[1].batteryStats" 	"energy (mWs)" 	1320.6144
scalar "sim.host[1].batteryStats" 	"time (s)" 	0.776832
scalar "sim.host[1].batteryStats" 	"account" 	3
scalar "sim.host[1].batteryStats" 	"energy (mWs)" 	821.1672
scalar "sim.host[1].batteryStats" 	"time (s)" 	0.391032
scalar "sim.host[1].appl" 	"broadcast queued" 	100
scalar "sim.host[1].appl" 	"replies sent" 	183
scalar "sim.host[1].appl" 	"replies received" 	187
scalar "sim.host[2].batteryStats" 	"nominal (mW-s)" 	3600
scalar "sim.host[2].batteryStats" 	"total (mW-s)" 	2186.58548
scalar "sim.host[2].batteryStats" 	"lifetime(s) (-1 == non-failed)" 	-1
scalar "sim.host[2].batteryStats" 	"num devices" 	1
scalar "sim.host[2].batteryStats" 	"80211Nic" 	0
scalar "sim.host[2].batteryStats" 	"device total (mWs)" 	2186.58548
scalar "sim.host[2].batteryStats" 	"account" 	0
scalar "sim.host[2].batteryStats" 	"energy (mWs)" 	0
scalar "sim.host[2].batteryStats" 	"time (s)" 	0
scalar "sim.host[2].batteryStats" 	"account" 	1
scalar "sim.host[2].batteryStats" 	"energy (mWs)" 	44.16068
scalar "sim.host[2].batteryStats" 	"time (s)" 	8.832136
scalar "sim.host[2].batteryStats" 	"account" 	2
scalar "sim.host[2].batteryStats" 	"energy (mWs)" 	1317.8808
scalar "sim.host[2].batteryStats" 	"time (s)" 	0.775224
scalar "sim.host[2].batteryStats" 	"account" 	3
scalar "sim.host[2].batteryStats" 	"energy (mWs)" 	824.544
scalar "sim.host[2].batteryStats" 	"time (s)" 	0.39264
scalar "sim.host[2].appl" 	"broadcast queued" 	100
scalar "sim.host[2].appl" 	"replies sent" 	190
scalar "sim.host[2].appl" 	"replies received" 	182