version 2
run Four-0-20100408-14:36:22-4494
attr configname Four
attr datetime 20100408-14:36:22
attr experiment Four
attr inifile omnetpp.ini
attr iterationvars ""
attr iterationvars2 $repetition=0
attr measurement ""
attr network sim
attr processid 4494
attr repetition 0
attr replication #0
attr resultdir results
attr runnumber 0
attr seedset 0

scalar sim.host[0].batteryStats 	nominal 	3600
attr unit  mW-s
scalar sim.host[0].batteryStats 	total 	2301.044
attr unit  mW-s
scalar sim.host[0].batteryStats 	lifetime 	-1
attr unit  s
scalar sim.host[0].batteryStats 	"Mean power consumption" 	230.1044
attr unit  mW
scalar sim.host[0].batteryStats 	"num devices" 	1
scalar sim.host[0].batteryStats 	"physical layer" 	0
scalar sim.host[0].batteryStats 	"device total (mWs)" 	2301.044
scalar sim.host[0].batteryStats 	account 	0
scalar sim.host[0].batteryStats 	"energy (mWs)" 	0
scalar sim.host[0].batteryStats 	"time (s)" 	0
scalar sim.host[0].batteryStats 	account 	1
scalar sim.host[0].batteryStats 	"energy (mWs)" 	43.844
scalar sim.host[0].batteryStats 	"time (s)" 	8.7688
scalar sim.host[0].batteryStats 	account 	2
scalar sim.host[0].batteryStats 	"energy (mWs)" 	861.84
scalar sim.host[0].batteryStats 	"time (s)" 	0.4104
scalar sim.host[0].batteryStats 	account 	3
scalar sim.host[0].batteryStats 	"energy (mWs)" 	0
scalar sim.host[0].batteryStats 	"time (s)" 	0
scalar sim.host[0].batteryStats 	account 	4
scalar sim.host[0].batteryStats 	"energy (mWs)" 	1395.36
scalar sim.host[0].batteryStats 	"time (s)" 	0.8208
scalar sim.host[0].appl 	"broadcast queued" 	100
scalar sim.host[0].appl 	"replies sent" 	200
scalar sim.host[0].appl 	"replies received" 	200
scalar sim.host[1].batteryStats 	nominal 	3600
attr unit  mW-s
scalar sim.host[1].batteryStats 	total 	2301.044
attr unit  mW-s
scalar sim.host[1].batteryStats 	lifetime 	-1
attr unit  s
scalar sim.host[1].batteryStats 	"Mean power consumption" 	230.1044
attr unit  mW
scalar sim.host[1].batteryStats 	"num devices" 	1
scalar sim.host[1].batteryStats 	"physical layer" 	0
scalar sim.host[1].batteryStats 	"device total (mWs)" 	2301.044
scalar sim.host[1].batteryStats 	account 	0
scalar sim.host[1].batteryStats 	"energy (mWs)" 	0
scalar sim.host[1].batteryStats 	"time (s)" 	0
scalar sim.host[1].batteryStats 	account 	1
scalar sim.host[1].batteryStats 	"energy (mWs)" 	43.844
scalar sim.host[1].batteryStats 	"time (s)" 	8.7688
scalar sim.host[1].batteryStats 	account 	2
scalar sim.host[1].batteryStats 	"energy (mWs)" 	861.84
scalar sim.host[1].batteryStats 	"time (s)" 	0.4104
scalar sim.host[1].batteryStats 	account 	3
scalar sim.host[1].batteryStats 	"energy (mWs)" 	0
scalar sim.host[1].batteryStats 	"time (s)" 	0
scalar sim.host[1].batteryStats 	account 	4
scalar sim.host[1].batteryStats 	"energy (mWs)" 	1395.36
scalar sim.host[1].batteryStats 	"time (s)" 	0.8208
scalar sim.host[1].appl 	"broadcast queued" 	100
scalar sim.host[1].appl 	"replies sent" 	200
scalar sim.host[1].appl 	"replies received" 	200
scalar sim.host[2].batteryStats 	nominal 	3600
attr unit  mW-s
scalar sim.host[2].batteryStats 	total 	2301.044
attr unit  mW-s
scalar sim.host[2].batteryStats 	lifetime 	-1
attr unit  s
scalar sim.host[2].batteryStats 	"Mean power consumption" 	230.1044
attr unit  mW
scalar sim.host[2].batteryStats 	"num devices" 	1
scalar sim.host[2].batteryStats 	"physical layer" 	0
scalar sim.host[2].batteryStats 	"device total (mWs)" 	2301.044
scalar sim.host[2].batteryStats 	account 	0
scalar sim.host[2].batteryStats 	"energy (mWs)" 	0
scalar sim.host[2].batteryStats 	"time (s)" 	0
scalar sim.host[2].batteryStats 	account 	1
scalar sim.host[2].batteryStats 	"energy (mWs)" 	43.844
scalar sim.host[2].batteryStats 	"time (s)" 	8.7688
scalar sim.host[2].batteryStats 	account 	2
scalar sim.host[2].batteryStats 	"energy (mWs)" 	861.84
scalar sim.host[2].batteryStats 	"time (s)" 	0.4104
scalar sim.host[2].batteryStats 	account 	3
scalar sim.host[2].batteryStats 	"energy (mWs)" 	0
scalar sim.host[2].batteryStats 	"time (s)" 	0
scalar sim.host[2].batteryStats 	account 	4
scalar sim.host[2].batteryStats 	"energy (mWs)" 	1395.36
scalar sim.host[2].batteryStats 	"time (s)" 	0.8208
scalar sim.host[2].appl 	"broadcast queued" 	100
scalar sim.host[2].appl 	"replies sent" 	200
scalar sim.host[2].appl 	"replies received" 	200
