version 2
run Nine-0-20110329-15:18:09-9096
attr configname Nine
attr datetime 20110329-15:18:09
attr experiment Nine
attr inifile omnetpp.ini
attr iterationvars ""
attr iterationvars2 $repetition=0
attr measurement ""
attr network sim
attr processid 9096
attr repetition 0
attr replication #0
attr resultdir results
attr runnumber 0
attr seedset 0

scalar sim.host[0].batteryStats 	nominal 	12420000
attr unit  mW-s
scalar sim.host[0].batteryStats 	total 	7864.58481717
attr unit  mW-s
scalar sim.host[0].batteryStats 	lifetime 	-1
attr unit  s
scalar sim.host[0].batteryStats 	"Mean power consumption" 	524.305654478
attr unit  mW
scalar sim.host[0].batteryStats 	"num devices" 	1
scalar sim.host[0].batteryStats 	"physical layer" 	0
scalar sim.host[0].batteryStats 	"device total (mWs)" 	7864.584816
scalar sim.host[0].batteryStats 	account 	0
scalar sim.host[0].batteryStats 	"energy (mWs)" 	0
scalar sim.host[0].batteryStats 	"time (s)" 	0
scalar sim.host[0].batteryStats 	account 	1
scalar sim.host[0].batteryStats 	"energy (mWs)" 	6871.906368
scalar sim.host[0].batteryStats 	"time (s)" 	13.317648
scalar sim.host[0].batteryStats 	account 	2
scalar sim.host[0].batteryStats 	"energy (mWs)" 	54.470448
scalar sim.host[0].batteryStats 	"time (s)" 	0.118672
scalar sim.host[0].batteryStats 	account 	3
scalar sim.host[0].batteryStats 	"energy (mWs)" 	0
scalar sim.host[0].batteryStats 	"time (s)" 	0
scalar sim.host[0].batteryStats 	account 	4
scalar sim.host[0].batteryStats 	"energy (mWs)" 	938.208
scalar sim.host[0].batteryStats 	"time (s)" 	1.56368
scalar sim.host[0].appl 	"broadcast queued" 	10
scalar sim.host[0].appl 	"replies sent" 	66
scalar sim.host[0].appl 	"replies received" 	62
scalar sim.host[1].batteryStats 	nominal 	12420000
attr unit  mW-s
scalar sim.host[1].batteryStats 	total 	7819.98412879
attr unit  mW-s
scalar sim.host[1].batteryStats 	lifetime 	-1
attr unit  s
scalar sim.host[1].batteryStats 	"Mean power consumption" 	521.332275253
attr unit  mW
scalar sim.host[1].batteryStats 	"num devices" 	1
scalar sim.host[1].batteryStats 	"physical layer" 	0
scalar sim.host[1].batteryStats 	"device total (mWs)" 	7819.984128
scalar sim.host[1].batteryStats 	account 	0
scalar sim.host[1].batteryStats 	"energy (mWs)" 	0
scalar sim.host[1].batteryStats 	"time (s)" 	0
scalar sim.host[1].batteryStats 	account 	1
scalar sim.host[1].batteryStats 	"energy (mWs)" 	7168.346304
scalar sim.host[1].batteryStats 	"time (s)" 	13.892144
scalar sim.host[1].batteryStats 	account 	2
scalar sim.host[1].batteryStats 	"energy (mWs)" 	42.565824
scalar sim.host[1].batteryStats 	"time (s)" 	0.092736
scalar sim.host[1].batteryStats 	account 	3
scalar sim.host[1].batteryStats 	"energy (mWs)" 	0
scalar sim.host[1].batteryStats 	"time (s)" 	0
scalar sim.host[1].batteryStats 	account 	4
scalar sim.host[1].batteryStats 	"energy (mWs)" 	609.072
scalar sim.host[1].batteryStats 	"time (s)" 	1.01512
scalar sim.host[1].appl 	"broadcast queued" 	10
scalar sim.host[1].appl 	"replies sent" 	45
scalar sim.host[1].appl 	"replies received" 	42
scalar sim.host[2].batteryStats 	nominal 	12420000
attr unit  mW-s
scalar sim.host[2].batteryStats 	total 	7823.55528077
attr unit  mW-s
scalar sim.host[2].batteryStats 	lifetime 	-1
attr unit  s
scalar sim.host[2].batteryStats 	"Mean power consumption" 	521.570352051
attr unit  mW
scalar sim.host[2].batteryStats 	"num devices" 	1
scalar sim.host[2].batteryStats 	"physical layer" 	0
scalar sim.host[2].batteryStats 	"device total (mWs)" 	7823.55528
scalar sim.host[2].batteryStats 	account 	0
scalar sim.host[2].batteryStats 	"energy (mWs)" 	0
scalar sim.host[2].batteryStats 	"time (s)" 	0
scalar sim.host[2].batteryStats 	account 	1
scalar sim.host[2].batteryStats 	"energy (mWs)" 	7160.69712
scalar sim.host[2].batteryStats 	"time (s)" 	13.87732
scalar sim.host[2].batteryStats 	account 	2
scalar sim.host[2].batteryStats 	"energy (mWs)" 	34.99416
scalar sim.host[2].batteryStats 	"time (s)" 	0.07624
scalar sim.host[2].batteryStats 	account 	3
scalar sim.host[2].batteryStats 	"energy (mWs)" 	0
scalar sim.host[2].batteryStats 	"time (s)" 	0
scalar sim.host[2].batteryStats 	account 	4
scalar sim.host[2].batteryStats 	"energy (mWs)" 	627.864
scalar sim.host[2].batteryStats 	"time (s)" 	1.04644
scalar sim.host[2].appl 	"broadcast queued" 	10
scalar sim.host[2].appl 	"replies sent" 	39
scalar sim.host[2].appl 	"replies received" 	40
scalar sim.host[3].batteryStats 	nominal 	12420000
attr unit  mW-s
scalar sim.host[3].batteryStats 	total 	7852.91445712
attr unit  mW-s
scalar sim.host[3].batteryStats 	lifetime 	-1
attr unit  s
scalar sim.host[3].batteryStats 	"Mean power consumption" 	523.527630474
attr unit  mW
scalar sim.host[3].batteryStats 	"num devices" 	1
scalar sim.host[3].batteryStats 	"physical layer" 	0
scalar sim.host[3].batteryStats 	"device total (mWs)" 	7852.914456
scalar sim.host[3].batteryStats 	account 	0
scalar sim.host[3].batteryStats 	"energy (mWs)" 	0
scalar sim.host[3].batteryStats 	"time (s)" 	0
scalar sim.host[3].batteryStats 	account 	1
scalar sim.host[3].batteryStats 	"energy (mWs)" 	6932.765472
scalar sim.host[3].batteryStats 	"time (s)" 	13.435592
scalar sim.host[3].batteryStats 	account 	2
scalar sim.host[3].batteryStats 	"energy (mWs)" 	60.209784
scalar sim.host[3].batteryStats 	"time (s)" 	0.131176
scalar sim.host[3].batteryStats 	account 	3
scalar sim.host[3].batteryStats 	"energy (mWs)" 	0
scalar sim.host[3].batteryStats 	"time (s)" 	0
scalar sim.host[3].batteryStats 	account 	4
scalar sim.host[3].batteryStats 	"energy (mWs)" 	859.9392
scalar sim.host[3].batteryStats 	"time (s)" 	1.433232
scalar sim.host[3].appl 	"broadcast queued" 	10
scalar sim.host[3].appl 	"replies sent" 	69
scalar sim.host[3].appl 	"replies received" 	64
scalar sim.host[4].batteryStats 	nominal 	12420000
attr unit  mW-s
scalar sim.host[4].batteryStats 	total 	7854.64831312
attr unit  mW-s
scalar sim.host[4].batteryStats 	lifetime 	-1
attr unit  s
scalar sim.host[4].batteryStats 	"Mean power consumption" 	523.643220875
attr unit  mW
scalar sim.host[4].batteryStats 	"num devices" 	1
scalar sim.host[4].batteryStats 	"physical layer" 	0
scalar sim.host[4].batteryStats 	"device total (mWs)" 	7854.648312
scalar sim.host[4].batteryStats 	account 	0
scalar sim.host[4].batteryStats 	"energy (mWs)" 	0
scalar sim.host[4].batteryStats 	"time (s)" 	0
scalar sim.host[4].batteryStats 	account 	1
scalar sim.host[4].batteryStats 	"energy (mWs)" 	6923.943936
scalar sim.host[4].batteryStats 	"time (s)" 	13.418496
scalar sim.host[4].batteryStats 	account 	2
scalar sim.host[4].batteryStats 	"energy (mWs)" 	59.240376
scalar sim.host[4].batteryStats 	"time (s)" 	0.129064
scalar sim.host[4].batteryStats 	account 	3
scalar sim.host[4].batteryStats 	"energy (mWs)" 	0
scalar sim.host[4].batteryStats 	"time (s)" 	0
scalar sim.host[4].batteryStats 	account 	4
scalar sim.host[4].batteryStats 	"energy (mWs)" 	871.464
scalar sim.host[4].batteryStats 	"time (s)" 	1.45244
scalar sim.host[4].appl 	"broadcast queued" 	10
scalar sim.host[4].appl 	"replies sent" 	72
scalar sim.host[4].appl 	"replies received" 	75
scalar sim.host[5].batteryStats 	nominal 	12420000
attr unit  mW-s
scalar sim.host[5].batteryStats 	total 	7851.39936115
attr unit  mW-s
scalar sim.host[5].batteryStats 	lifetime 	-1
attr unit  s
scalar sim.host[5].batteryStats 	"Mean power consumption" 	523.426624077
attr unit  mW
scalar sim.host[5].batteryStats 	"num devices" 	1
scalar sim.host[5].batteryStats 	"physical layer" 	0
scalar sim.host[5].batteryStats 	"device total (mWs)" 	7851.39936
scalar sim.host[5].batteryStats 	account 	0
scalar sim.host[5].batteryStats 	"energy (mWs)" 	0
scalar sim.host[5].batteryStats 	"time (s)" 	0
scalar sim.host[5].batteryStats 	account 	1
scalar sim.host[5].batteryStats 	"energy (mWs)" 	6923.4816
scalar sim.host[5].batteryStats 	"time (s)" 	13.4176
scalar sim.host[5].batteryStats 	account 	2
scalar sim.host[5].batteryStats 	"energy (mWs)" 	70.06176
scalar sim.host[5].batteryStats 	"time (s)" 	0.15264
scalar sim.host[5].batteryStats 	account 	3
scalar sim.host[5].batteryStats 	"energy (mWs)" 	0
scalar sim.host[5].batteryStats 	"time (s)" 	0
scalar sim.host[5].batteryStats 	account 	4
scalar sim.host[5].batteryStats 	"energy (mWs)" 	857.856
scalar sim.host[5].batteryStats 	"time (s)" 	1.42976
scalar sim.host[5].appl 	"broadcast queued" 	10
scalar sim.host[5].appl 	"replies sent" 	84
scalar sim.host[5].appl 	"replies received" 	79
scalar sim.host[6].batteryStats 	nominal 	12420000
attr unit  mW-s
scalar sim.host[6].batteryStats 	total 	7801.96732847
attr unit  mW-s
scalar sim.host[6].batteryStats 	lifetime 	-1
attr unit  s
scalar sim.host[6].batteryStats 	"Mean power consumption" 	520.131155231
attr unit  mW
scalar sim.host[6].batteryStats 	"num devices" 	1
scalar sim.host[6].batteryStats 	"physical layer" 	0
scalar sim.host[6].batteryStats 	"device total (mWs)" 	7801.967328
scalar sim.host[6].batteryStats 	account 	0
scalar sim.host[6].batteryStats 	"energy (mWs)" 	0
scalar sim.host[6].batteryStats 	"time (s)" 	0
scalar sim.host[6].batteryStats 	account 	1
scalar sim.host[6].batteryStats 	"energy (mWs)" 	7337.392032
scalar sim.host[6].batteryStats 	"time (s)" 	14.219752
scalar sim.host[6].batteryStats 	account 	2
scalar sim.host[6].batteryStats 	"energy (mWs)" 	11.632896
scalar sim.host[6].batteryStats 	"time (s)" 	0.025344
scalar sim.host[6].batteryStats 	account 	3
scalar sim.host[6].batteryStats 	"energy (mWs)" 	0
scalar sim.host[6].batteryStats 	"time (s)" 	0
scalar sim.host[6].batteryStats 	account 	4
scalar sim.host[6].batteryStats 	"energy (mWs)" 	452.9424
scalar sim.host[6].batteryStats 	"time (s)" 	0.754904
scalar sim.host[6].appl 	"broadcast queued" 	10
scalar sim.host[6].appl 	"replies sent" 	10
scalar sim.host[6].appl 	"replies received" 	10
scalar sim.host[7].batteryStats 	nominal 	12420000
attr unit  mW-s
scalar sim.host[7].batteryStats 	total 	7863.92044918
attr unit  mW-s
scalar sim.host[7].batteryStats 	lifetime 	-1
attr unit  s
scalar sim.host[7].batteryStats 	"Mean power consumption" 	524.261363279
attr unit  mW
scalar sim.host[7].batteryStats 	"num devices" 	1
scalar sim.host[7].batteryStats 	"physical layer" 	0
scalar sim.host[7].batteryStats 	"device total (mWs)" 	7863.920448
scalar sim.host[7].batteryStats 	account 	0
scalar sim.host[7].batteryStats 	"energy (mWs)" 	0
scalar sim.host[7].batteryStats 	"time (s)" 	0
scalar sim.host[7].batteryStats 	account 	1
scalar sim.host[7].batteryStats 	"energy (mWs)" 	6872.509056
scalar sim.host[7].batteryStats 	"time (s)" 	13.318816
scalar sim.host[7].batteryStats 	account 	2
scalar sim.host[7].batteryStats 	"energy (mWs)" 	56.313792
scalar sim.host[7].batteryStats 	"time (s)" 	0.122688
scalar sim.host[7].batteryStats 	account 	3
scalar sim.host[7].batteryStats 	"energy (mWs)" 	0
scalar sim.host[7].batteryStats 	"time (s)" 	0
scalar sim.host[7].batteryStats 	account 	4
scalar sim.host[7].batteryStats 	"energy (mWs)" 	935.0976
scalar sim.host[7].batteryStats 	"time (s)" 	1.558496
scalar sim.host[7].appl 	"broadcast queued" 	10
scalar sim.host[7].appl 	"replies sent" 	66
scalar sim.host[7].appl 	"replies received" 	69
scalar sim.host[8].batteryStats 	nominal 	12420000
attr unit  mW-s
scalar sim.host[8].batteryStats 	total 	7813.86662467
attr unit  mW-s
scalar sim.host[8].batteryStats 	lifetime 	-1
attr unit  s
scalar sim.host[8].batteryStats 	"Mean power consumption" 	520.924441645
attr unit  mW
scalar sim.host[8].batteryStats 	"num devices" 	1
scalar sim.host[8].batteryStats 	"physical layer" 	0
scalar sim.host[8].batteryStats 	"device total (mWs)" 	7813.866624
scalar sim.host[8].batteryStats 	account 	0
scalar sim.host[8].batteryStats 	"energy (mWs)" 	0
scalar sim.host[8].batteryStats 	"time (s)" 	0
scalar sim.host[8].batteryStats 	account 	1
scalar sim.host[8].batteryStats 	"energy (mWs)" 	7238.270496
scalar sim.host[8].batteryStats 	"time (s)" 	14.027656
scalar sim.host[8].batteryStats 	account 	2
scalar sim.host[8].batteryStats 	"energy (mWs)" 	25.424928
scalar sim.host[8].batteryStats 	"time (s)" 	0.055392
scalar sim.host[8].batteryStats 	account 	3
scalar sim.host[8].batteryStats 	"energy (mWs)" 	0
scalar sim.host[8].batteryStats 	"time (s)" 	0
scalar sim.host[8].batteryStats 	account 	4
scalar sim.host[8].batteryStats 	"energy (mWs)" 	550.1712
scalar sim.host[8].batteryStats 	"time (s)" 	0.916952
scalar sim.host[8].appl 	"broadcast queued" 	10
scalar sim.host[8].appl 	"replies sent" 	30
scalar sim.host[8].appl 	"replies received" 	24
scalar sim.host[9].batteryStats 	nominal 	12420000
attr unit  mW-s
scalar sim.host[9].batteryStats 	total 	7901.89130556
attr unit  mW-s
scalar sim.host[9].batteryStats 	lifetime 	-1
attr unit  s
scalar sim.host[9].batteryStats 	"Mean power consumption" 	526.792753704
attr unit  mW
scalar sim.host[9].batteryStats 	"num devices" 	1
scalar sim.host[9].batteryStats 	"physical layer" 	0
scalar sim.host[9].batteryStats 	"device total (mWs)" 	7901.891304
scalar sim.host[9].batteryStats 	account 	0
scalar sim.host[9].batteryStats 	"energy (mWs)" 	0
scalar sim.host[9].batteryStats 	"time (s)" 	0
scalar sim.host[9].batteryStats 	account 	1
scalar sim.host[9].batteryStats 	"energy (mWs)" 	6618.451296
scalar sim.host[9].batteryStats 	"time (s)" 	12.826456
scalar sim.host[9].batteryStats 	account 	2
scalar sim.host[9].batteryStats 	"energy (mWs)" 	67.340808
scalar sim.host[9].batteryStats 	"time (s)" 	0.146712
scalar sim.host[9].batteryStats 	account 	3
scalar sim.host[9].batteryStats 	"energy (mWs)" 	0
scalar sim.host[9].batteryStats 	"time (s)" 	0
scalar sim.host[9].batteryStats 	account 	4
scalar sim.host[9].batteryStats 	"energy (mWs)" 	1216.0992
scalar sim.host[9].batteryStats 	"time (s)" 	2.026832
scalar sim.host[9].appl 	"broadcast queued" 	10
scalar sim.host[9].appl 	"replies sent" 	77
scalar sim.host[9].appl 	"replies received" 	85
scalar sim.host[10].batteryStats 	nominal 	12420000
attr unit  mW-s
scalar sim.host[10].batteryStats 	total 	7837.66188098
attr unit  mW-s
scalar sim.host[10].batteryStats 	lifetime 	-1
attr unit  s
scalar sim.host[10].batteryStats 	"Mean power consumption" 	522.510792065
attr unit  mW
scalar sim.host[10].batteryStats 	"num devices" 	1
scalar sim.host[10].batteryStats 	"physical layer" 	0
scalar sim.host[10].batteryStats 	"device total (mWs)" 	7837.66188
scalar sim.host[10].batteryStats 	account 	0
scalar sim.host[10].batteryStats 	"energy (mWs)" 	0
scalar sim.host[10].batteryStats 	"time (s)" 	0
scalar sim.host[10].batteryStats 	account 	1
scalar sim.host[10].batteryStats 	"energy (mWs)" 	7038.128544
scalar sim.host[10].batteryStats 	"time (s)" 	13.639784
scalar sim.host[10].batteryStats 	account 	2
scalar sim.host[10].batteryStats 	"energy (mWs)" 	54.026136
scalar sim.host[10].batteryStats 	"time (s)" 	0.117704
scalar sim.host[10].batteryStats 	account 	3
scalar sim.host[10].batteryStats 	"energy (mWs)" 	0
scalar sim.host[10].batteryStats 	"time (s)" 	0
scalar sim.host[10].batteryStats 	account 	4
scalar sim.host[10].batteryStats 	"energy (mWs)" 	745.5072
scalar sim.host[10].batteryStats 	"time (s)" 	1.242512
scalar sim.host[10].appl 	"broadcast queued" 	10
scalar sim.host[10].appl 	"replies sent" 	66
scalar sim.host[10].appl 	"replies received" 	64
scalar sim.host[11].batteryStats 	nominal 	12420000
attr unit  mW-s
scalar sim.host[11].batteryStats 	total 	7851.52149715
attr unit  mW-s
scalar sim.host[11].batteryStats 	lifetime 	-1
attr unit  s
scalar sim.host[11].batteryStats 	"Mean power consumption" 	523.434766476
attr unit  mW
scalar sim.host[11].batteryStats 	"num devices" 	1
scalar sim.host[11].batteryStats 	"physical layer" 	0
scalar sim.host[11].batteryStats 	"device total (mWs)" 	7851.521496
scalar sim.host[11].batteryStats 	account 	0
scalar sim.host[11].batteryStats 	"energy (mWs)" 	0
scalar sim.host[11].batteryStats 	"time (s)" 	0
scalar sim.host[11].batteryStats 	account 	1
scalar sim.host[11].batteryStats 	"energy (mWs)" 	6923.943936
scalar sim.host[11].batteryStats 	"time (s)" 	13.418496
scalar sim.host[11].batteryStats 	account 	2
scalar sim.host[11].batteryStats 	"energy (mWs)" 	69.41916
scalar sim.host[11].batteryStats 	"time (s)" 	0.15124
scalar sim.host[11].batteryStats 	account 	3
scalar sim.host[11].batteryStats 	"energy (mWs)" 	0
scalar sim.host[11].batteryStats 	"time (s)" 	0
scalar sim.host[11].batteryStats 	account 	4
scalar sim.host[11].batteryStats 	"energy (mWs)" 	858.1584
scalar sim.host[11].batteryStats 	"time (s)" 	1.430264
scalar sim.host[11].appl 	"broadcast queued" 	10
scalar sim.host[11].appl 	"replies sent" 	82
scalar sim.host[11].appl 	"replies received" 	82
scalar sim.host[12].batteryStats 	nominal 	12420000
attr unit  mW-s
scalar sim.host[12].batteryStats 	total 	7818.45614488
attr unit  mW-s
scalar sim.host[12].batteryStats 	lifetime 	-1
attr unit  s
scalar sim.host[12].batteryStats 	"Mean power consumption" 	521.230409659
attr unit  mW
scalar sim.host[12].batteryStats 	"num devices" 	1
scalar sim.host[12].batteryStats 	"physical layer" 	0
scalar sim.host[12].batteryStats 	"device total (mWs)" 	7818.456144
scalar sim.host[12].batteryStats 	account 	0
scalar sim.host[12].batteryStats 	"energy (mWs)" 	0
scalar sim.host[12].batteryStats 	"time (s)" 	0
scalar sim.host[12].batteryStats 	account 	1
scalar sim.host[12].batteryStats 	"energy (mWs)" 	7142.352288
scalar sim.host[12].batteryStats 	"time (s)" 	13.841768
scalar sim.host[12].batteryStats 	account 	2
scalar sim.host[12].batteryStats 	"energy (mWs)" 	61.315056
scalar sim.host[12].batteryStats 	"time (s)" 	0.133584
scalar sim.host[12].batteryStats 	account 	3
scalar sim.host[12].batteryStats 	"energy (mWs)" 	0
scalar sim.host[12].batteryStats 	"time (s)" 	0
scalar sim.host[12].batteryStats 	account 	4
scalar sim.host[12].batteryStats 	"energy (mWs)" 	614.7888
scalar sim.host[12].batteryStats 	"time (s)" 	1.024648
scalar sim.host[12].appl 	"broadcast queued" 	10
scalar sim.host[12].appl 	"replies sent" 	75
scalar sim.host[12].appl 	"replies received" 	68
scalar sim.host[13].batteryStats 	nominal 	12420000
attr unit  mW-s
scalar sim.host[13].batteryStats 	total 	7836.58408899
attr unit  mW-s
scalar sim.host[13].batteryStats 	lifetime 	-1
attr unit  s
scalar sim.host[13].batteryStats 	"Mean power consumption" 	522.438939266
attr unit  mW
scalar sim.host[13].batteryStats 	"num devices" 	1
scalar sim.host[13].batteryStats 	"physical layer" 	0
scalar sim.host[13].batteryStats 	"device total (mWs)" 	7836.584088
scalar sim.host[13].batteryStats 	account 	0
scalar sim.host[13].batteryStats 	"energy (mWs)" 	0
scalar sim.host[13].batteryStats 	"time (s)" 	0
scalar sim.host[13].batteryStats 	account 	1
scalar sim.host[13].batteryStats 	"energy (mWs)" 	7038.429888
scalar sim.host[13].batteryStats 	"time (s)" 	13.640368
scalar sim.host[13].batteryStats 	account 	2
scalar sim.host[13].batteryStats 	"energy (mWs)" 	57.375
scalar sim.host[13].batteryStats 	"time (s)" 	0.125
scalar sim.host[13].batteryStats 	account 	3
scalar sim.host[13].batteryStats 	"energy (mWs)" 	0
scalar sim.host[13].batteryStats 	"time (s)" 	0
scalar sim.host[13].batteryStats 	account 	4
scalar sim.host[13].batteryStats 	"energy (mWs)" 	740.7792
scalar sim.host[13].batteryStats 	"time (s)" 	1.234632
scalar sim.host[13].appl 	"broadcast queued" 	10
scalar sim.host[13].appl 	"replies sent" 	68
scalar sim.host[13].appl 	"replies received" 	64
scalar sim.host[14].batteryStats 	nominal 	12420000
attr unit  mW-s
scalar sim.host[14].batteryStats 	total 	7848.60537683
attr unit  mW-s
scalar sim.host[14].batteryStats 	lifetime 	-1
attr unit  s
scalar sim.host[14].batteryStats 	"Mean power consumption" 	523.240358455
attr unit  mW
scalar sim.host[14].batteryStats 	"num devices" 	1
scalar sim.host[14].batteryStats 	"physical layer" 	0
scalar sim.host[14].batteryStats 	"device total (mWs)" 	7848.605376
scalar sim.host[14].batteryStats 	account 	0
scalar sim.host[14].batteryStats 	"energy (mWs)" 	0
scalar sim.host[14].batteryStats 	"time (s)" 	0
scalar sim.host[14].batteryStats 	account 	1
scalar sim.host[14].batteryStats 	"energy (mWs)" 	7050.429984
scalar sim.host[14].batteryStats 	"time (s)" 	13.663624
scalar sim.host[14].batteryStats 	account 	2
scalar sim.host[14].batteryStats 	"energy (mWs)" 	11.882592
scalar sim.host[14].batteryStats 	"time (s)" 	0.025888
scalar sim.host[14].batteryStats 	account 	3
scalar sim.host[14].batteryStats 	"energy (mWs)" 	0
scalar sim.host[14].batteryStats 	"time (s)" 	0
scalar sim.host[14].batteryStats 	account 	4
scalar sim.host[14].batteryStats 	"energy (mWs)" 	786.2928
scalar sim.host[14].batteryStats 	"time (s)" 	1.310488
scalar sim.host[14].appl 	"broadcast queued" 	10
scalar sim.host[14].appl 	"replies sent" 	10
scalar sim.host[14].appl 	"replies received" 	10
scalar sim.host[15].batteryStats 	nominal 	12420000
attr unit  mW-s
scalar sim.host[15].batteryStats 	total 	7819.89007286
attr unit  mW-s
scalar sim.host[15].batteryStats 	lifetime 	-1
attr unit  s
scalar sim.host[15].batteryStats 	"Mean power consumption" 	521.326004858
attr unit  mW
scalar sim.host[15].batteryStats 	"num devices" 	1
scalar sim.host[15].batteryStats 	"physical layer" 	0
scalar sim.host[15].batteryStats 	"device total (mWs)" 	7819.890072
scalar sim.host[15].batteryStats 	account 	0
scalar sim.host[15].batteryStats 	"energy (mWs)" 	0
scalar sim.host[15].batteryStats 	"time (s)" 	0
scalar sim.host[15].batteryStats 	account 	1
scalar sim.host[15].batteryStats 	"energy (mWs)" 	7141.588608
scalar sim.host[15].batteryStats 	"time (s)" 	13.840288
scalar sim.host[15].batteryStats 	account 	2
scalar sim.host[15].batteryStats 	"energy (mWs)" 	57.051864
scalar sim.host[15].batteryStats 	"time (s)" 	0.124296
scalar sim.host[15].batteryStats 	account 	3
scalar sim.host[15].batteryStats 	"energy (mWs)" 	0
scalar sim.host[15].batteryStats 	"time (s)" 	0
scalar sim.host[15].batteryStats 	account 	4
scalar sim.host[15].batteryStats 	"energy (mWs)" 	621.2496
scalar sim.host[15].batteryStats 	"time (s)" 	1.035416
scalar sim.host[15].appl 	"broadcast queued" 	10
scalar sim.host[15].appl 	"replies sent" 	68
scalar sim.host[15].appl 	"replies received" 	69
scalar sim.host[16].batteryStats 	nominal 	12420000
attr unit  mW-s
scalar sim.host[16].batteryStats 	total 	7818.29392885
attr unit  mW-s
scalar sim.host[16].batteryStats 	lifetime 	-1
attr unit  s
scalar sim.host[16].batteryStats 	"Mean power consumption" 	521.219595257
attr unit  mW
scalar sim.host[16].batteryStats 	"num devices" 	1
scalar sim.host[16].batteryStats 	"physical layer" 	0
scalar sim.host[16].batteryStats 	"device total (mWs)" 	7818.293928
scalar sim.host[16].batteryStats 	account 	0
scalar sim.host[16].batteryStats 	"energy (mWs)" 	0
scalar sim.host[16].batteryStats 	"time (s)" 	0
scalar sim.host[16].batteryStats 	account 	1
scalar sim.host[16].batteryStats 	"energy (mWs)" 	7154.56704
scalar sim.host[16].batteryStats 	"time (s)" 	13.86544
scalar sim.host[16].batteryStats 	account 	2
scalar sim.host[16].batteryStats 	"energy (mWs)" 	55.370088
scalar sim.host[16].batteryStats 	"time (s)" 	0.120632
scalar sim.host[16].batteryStats 	account 	3
scalar sim.host[16].batteryStats 	"energy (mWs)" 	0
scalar sim.host[16].batteryStats 	"time (s)" 	0
scalar sim.host[16].batteryStats 	account 	4
scalar sim.host[16].batteryStats 	"energy (mWs)" 	608.3568
scalar sim.host[16].batteryStats 	"time (s)" 	1.013928
scalar sim.host[16].appl 	"broadcast queued" 	10
scalar sim.host[16].appl 	"replies sent" 	65
scalar sim.host[16].appl 	"replies received" 	63
scalar sim.host[17].batteryStats 	nominal 	12420000
attr unit  mW-s
scalar sim.host[17].batteryStats 	total 	7898.22643359
attr unit  mW-s
scalar sim.host[17].batteryStats 	lifetime 	-1
attr unit  s
scalar sim.host[17].batteryStats 	"Mean power consumption" 	526.548428906
attr unit  mW
scalar sim.host[17].batteryStats 	"num devices" 	1
scalar sim.host[17].batteryStats 	"physical layer" 	0
scalar sim.host[17].batteryStats 	"device total (mWs)" 	7898.226432
scalar sim.host[17].batteryStats 	account 	0
scalar sim.host[17].batteryStats 	"energy (mWs)" 	0
scalar sim.host[17].batteryStats 	"time (s)" 	0
scalar sim.host[17].batteryStats 	account 	1
scalar sim.host[17].batteryStats 	"energy (mWs)" 	6618.451296
scalar sim.host[17].batteryStats 	"time (s)" 	12.826456
scalar sim.host[17].batteryStats 	account 	2
scalar sim.host[17].batteryStats 	"energy (mWs)" 	79.271136
scalar sim.host[17].batteryStats 	"time (s)" 	0.172704
scalar sim.host[17].batteryStats 	account 	3
scalar sim.host[17].batteryStats 	"energy (mWs)" 	0
scalar sim.host[17].batteryStats 	"time (s)" 	0
scalar sim.host[17].batteryStats 	account 	4
scalar sim.host[17].batteryStats 	"energy (mWs)" 	1200.504
scalar sim.host[17].batteryStats 	"time (s)" 	2.00084
scalar sim.host[17].appl 	"broadcast queued" 	10
scalar sim.host[17].appl 	"replies sent" 	81
scalar sim.host[17].appl 	"replies received" 	83
scalar sim.host[18].batteryStats 	nominal 	12420000
attr unit  mW-s
scalar sim.host[18].batteryStats 	total 	7838.00340098
attr unit  mW-s
scalar sim.host[18].batteryStats 	lifetime 	-1
attr unit  s
scalar sim.host[18].batteryStats 	"Mean power consumption" 	522.533560065
attr unit  mW
scalar sim.host[18].batteryStats 	"num devices" 	1
scalar sim.host[18].batteryStats 	"physical layer" 	0
scalar sim.host[18].batteryStats 	"device total (mWs)" 	7838.0034
scalar sim.host[18].batteryStats 	account 	0
scalar sim.host[18].batteryStats 	"energy (mWs)" 	0
scalar sim.host[18].batteryStats 	"time (s)" 	0
scalar sim.host[18].batteryStats 	account 	1
scalar sim.host[18].batteryStats 	"energy (mWs)" 	7038.289536
scalar sim.host[18].batteryStats 	"time (s)" 	13.640096
scalar sim.host[18].batteryStats 	account 	2
scalar sim.host[18].batteryStats 	"energy (mWs)" 	52.829064
scalar sim.host[18].batteryStats 	"time (s)" 	0.115096
scalar sim.host[18].batteryStats 	account 	3
scalar sim.host[18].batteryStats 	"energy (mWs)" 	0
scalar sim.host[18].batteryStats 	"time (s)" 	0
scalar sim.host[18].batteryStats 	account 	4
scalar sim.host[18].batteryStats 	"energy (mWs)" 	746.8848
scalar sim.host[18].batteryStats 	"time (s)" 	1.244808
scalar sim.host[18].appl 	"broadcast queued" 	10
scalar sim.host[18].appl 	"replies sent" 	64
scalar sim.host[18].appl 	"replies received" 	60
scalar sim.host[19].batteryStats 	nominal 	12420000
attr unit  mW-s
scalar sim.host[19].batteryStats 	total 	7835.082697
attr unit  mW-s
scalar sim.host[19].batteryStats 	lifetime 	-1
attr unit  s
scalar sim.host[19].batteryStats 	"Mean power consumption" 	522.338846467
attr unit  mW
scalar sim.host[19].batteryStats 	"num devices" 	1
scalar sim.host[19].batteryStats 	"physical layer" 	0
scalar sim.host[19].batteryStats 	"device total (mWs)" 	7835.082696
scalar sim.host[19].batteryStats 	account 	0
scalar sim.host[19].batteryStats 	"energy (mWs)" 	0
scalar sim.host[19].batteryStats 	"time (s)" 	0
scalar sim.host[19].batteryStats 	account 	1
scalar sim.host[19].batteryStats 	"energy (mWs)" 	7037.8272
scalar sim.host[19].batteryStats 	"time (s)" 	13.6392
scalar sim.host[19].batteryStats 	account 	2
scalar sim.host[19].batteryStats 	"energy (mWs)" 	62.581896
scalar sim.host[19].batteryStats 	"time (s)" 	0.136344
scalar sim.host[19].batteryStats 	account 	3
scalar sim.host[19].batteryStats 	"energy (mWs)" 	0
scalar sim.host[19].batteryStats 	"time (s)" 	0
scalar sim.host[19].batteryStats 	account 	4
scalar sim.host[19].batteryStats 	"energy (mWs)" 	734.6736
scalar sim.host[19].batteryStats 	"time (s)" 	1.224456
scalar sim.host[19].appl 	"broadcast queued" 	10
scalar sim.host[19].appl 	"replies sent" 	71
scalar sim.host[19].appl 	"replies received" 	67
