version 2
run Nine-0-20100408-14:37:05-4501
attr configname Nine
attr datetime 20100408-14:37:05
attr experiment Nine
attr inifile omnetpp.ini
attr iterationvars ""
attr iterationvars2 $repetition=0
attr measurement ""
attr network sim
attr processid 4501
attr repetition 0
attr replication #0
attr resultdir results
attr runnumber 0
attr seedset 0

scalar sim.host[0].batteryStats 	nominal 	12420000
attr unit  mW-s
scalar sim.host[0].batteryStats 	total 	7872.2980573
attr unit  mW-s
scalar sim.host[0].batteryStats 	lifetime 	-1
attr unit  s
scalar sim.host[0].batteryStats 	"Mean power consumption" 	524.819870487
attr unit  mW
scalar sim.host[0].batteryStats 	"num devices" 	1
scalar sim.host[0].batteryStats 	"physical layer" 	0
scalar sim.host[0].batteryStats 	"device total (mWs)" 	7872.298056
scalar sim.host[0].batteryStats 	account 	0
scalar sim.host[0].batteryStats 	"energy (mWs)" 	0
scalar sim.host[0].batteryStats 	"time (s)" 	0
scalar sim.host[0].batteryStats 	account 	1
scalar sim.host[0].batteryStats 	"energy (mWs)" 	6822.411648
scalar sim.host[0].batteryStats 	"time (s)" 	13.221728
scalar sim.host[0].batteryStats 	account 	2
scalar sim.host[0].batteryStats 	"energy (mWs)" 	55.590408
scalar sim.host[0].batteryStats 	"time (s)" 	0.121112
scalar sim.host[0].batteryStats 	account 	3
scalar sim.host[0].batteryStats 	"energy (mWs)" 	0
scalar sim.host[0].batteryStats 	"time (s)" 	0
scalar sim.host[0].batteryStats 	account 	4
scalar sim.host[0].batteryStats 	"energy (mWs)" 	994.296
scalar sim.host[0].batteryStats 	"time (s)" 	1.65716
scalar sim.host[0].appl 	"broadcast queued" 	10
scalar sim.host[0].appl 	"replies sent" 	69
scalar sim.host[0].appl 	"replies received" 	70
scalar sim.host[1].batteryStats 	nominal 	12420000
attr unit  mW-s
scalar sim.host[1].batteryStats 	total 	7825.49018488
attr unit  mW-s
scalar sim.host[1].batteryStats 	lifetime 	-1
attr unit  s
scalar sim.host[1].batteryStats 	"Mean power consumption" 	521.699345659
attr unit  mW
scalar sim.host[1].batteryStats 	"num devices" 	1
scalar sim.host[1].batteryStats 	"physical layer" 	0
scalar sim.host[1].batteryStats 	"device total (mWs)" 	7825.490184
scalar sim.host[1].batteryStats 	account 	0
scalar sim.host[1].batteryStats 	"energy (mWs)" 	0
scalar sim.host[1].batteryStats 	"time (s)" 	0
scalar sim.host[1].batteryStats 	account 	1
scalar sim.host[1].batteryStats 	"energy (mWs)" 	7137.551424
scalar sim.host[1].batteryStats 	"time (s)" 	13.832464
scalar sim.host[1].batteryStats 	account 	2
scalar sim.host[1].batteryStats 	"energy (mWs)" 	40.96116
scalar sim.host[1].batteryStats 	"time (s)" 	0.08924
scalar sim.host[1].batteryStats 	account 	3
scalar sim.host[1].batteryStats 	"energy (mWs)" 	0
scalar sim.host[1].batteryStats 	"time (s)" 	0
scalar sim.host[1].batteryStats 	account 	4
scalar sim.host[1].batteryStats 	"energy (mWs)" 	646.9776
scalar sim.host[1].batteryStats 	"time (s)" 	1.078296
scalar sim.host[1].appl 	"broadcast queued" 	10
scalar sim.host[1].appl 	"replies sent" 	46
scalar sim.host[1].appl 	"replies received" 	41
scalar sim.host[2].batteryStats 	nominal 	12420000
attr unit  mW-s
scalar sim.host[2].batteryStats 	total 	7828.24190487
attr unit  mW-s
scalar sim.host[2].batteryStats 	lifetime 	-1
attr unit  s
scalar sim.host[2].batteryStats 	"Mean power consumption" 	521.882793658
attr unit  mW
scalar sim.host[2].batteryStats 	"num devices" 	1
scalar sim.host[2].batteryStats 	"physical layer" 	0
scalar sim.host[2].batteryStats 	"device total (mWs)" 	7828.241904
scalar sim.host[2].batteryStats 	account 	0
scalar sim.host[2].batteryStats 	"energy (mWs)" 	0
scalar sim.host[2].batteryStats 	"time (s)" 	0
scalar sim.host[2].batteryStats 	account 	1
scalar sim.host[2].batteryStats 	"energy (mWs)" 	7129.274784
scalar sim.host[2].batteryStats 	"time (s)" 	13.816424
scalar sim.host[2].batteryStats 	account 	2
scalar sim.host[2].batteryStats 	"energy (mWs)" 	36.38952
scalar sim.host[2].batteryStats 	"time (s)" 	0.07928
scalar sim.host[2].batteryStats 	account 	3
scalar sim.host[2].batteryStats 	"energy (mWs)" 	0
scalar sim.host[2].batteryStats 	"time (s)" 	0
scalar sim.host[2].batteryStats 	account 	4
scalar sim.host[2].batteryStats 	"energy (mWs)" 	662.5776
scalar sim.host[2].batteryStats 	"time (s)" 	1.104296
scalar sim.host[2].appl 	"broadcast queued" 	10
scalar sim.host[2].appl 	"replies sent" 	41
scalar sim.host[2].appl 	"replies received" 	40
scalar sim.host[3].batteryStats 	nominal 	12420000
attr unit  mW-s
scalar sim.host[3].batteryStats 	total 	7860.26023329
attr unit  mW-s
scalar sim.host[3].batteryStats 	lifetime 	-1
attr unit  s
scalar sim.host[3].batteryStats 	"Mean power consumption" 	524.017348886
attr unit  mW
scalar sim.host[3].batteryStats 	"num devices" 	1
scalar sim.host[3].batteryStats 	"physical layer" 	0
scalar sim.host[3].batteryStats 	"device total (mWs)" 	7860.260232
scalar sim.host[3].batteryStats 	account 	0
scalar sim.host[3].batteryStats 	"energy (mWs)" 	0
scalar sim.host[3].batteryStats 	"time (s)" 	0
scalar sim.host[3].batteryStats 	account 	1
scalar sim.host[3].batteryStats 	"energy (mWs)" 	6878.647392
scalar sim.host[3].batteryStats 	"time (s)" 	13.330712
scalar sim.host[3].batteryStats 	account 	2
scalar sim.host[3].batteryStats 	"energy (mWs)" 	64.97604
scalar sim.host[3].batteryStats 	"time (s)" 	0.14156
scalar sim.host[3].batteryStats 	account 	3
scalar sim.host[3].batteryStats 	"energy (mWs)" 	0
scalar sim.host[3].batteryStats 	"time (s)" 	0
scalar sim.host[3].batteryStats 	account 	4
scalar sim.host[3].batteryStats 	"energy (mWs)" 	916.6368
scalar sim.host[3].batteryStats 	"time (s)" 	1.527728
scalar sim.host[3].appl 	"broadcast queued" 	10
scalar sim.host[3].appl 	"replies sent" 	72
scalar sim.host[3].appl 	"replies received" 	73
scalar sim.host[4].batteryStats 	nominal 	12420000
attr unit  mW-s
scalar sim.host[4].batteryStats 	total 	7862.55302529
attr unit  mW-s
scalar sim.host[4].batteryStats 	lifetime 	-1
attr unit  s
scalar sim.host[4].batteryStats 	"Mean power consumption" 	524.170201686
attr unit  mW
scalar sim.host[4].batteryStats 	"num devices" 	1
scalar sim.host[4].batteryStats 	"physical layer" 	0
scalar sim.host[4].batteryStats 	"device total (mWs)" 	7862.553024
scalar sim.host[4].batteryStats 	account 	0
scalar sim.host[4].batteryStats 	"energy (mWs)" 	0
scalar sim.host[4].batteryStats 	"time (s)" 	0
scalar sim.host[4].batteryStats 	account 	1
scalar sim.host[4].batteryStats 	"energy (mWs)" 	6868.769088
scalar sim.host[4].batteryStats 	"time (s)" 	13.311568
scalar sim.host[4].batteryStats 	account 	2
scalar sim.host[4].batteryStats 	"energy (mWs)" 	62.747136
scalar sim.host[4].batteryStats 	"time (s)" 	0.136704
scalar sim.host[4].batteryStats 	account 	3
scalar sim.host[4].batteryStats 	"energy (mWs)" 	0
scalar sim.host[4].batteryStats 	"time (s)" 	0
scalar sim.host[4].batteryStats 	account 	4
scalar sim.host[4].batteryStats 	"energy (mWs)" 	931.0368
scalar sim.host[4].batteryStats 	"time (s)" 	1.551728
scalar sim.host[4].appl 	"broadcast queued" 	10
scalar sim.host[4].appl 	"replies sent" 	77
scalar sim.host[4].appl 	"replies received" 	79
scalar sim.host[5].batteryStats 	nominal 	12420000
attr unit  mW-s
scalar sim.host[5].batteryStats 	total 	7859.71723331
attr unit  mW-s
scalar sim.host[5].batteryStats 	lifetime 	-1
attr unit  s
scalar sim.host[5].batteryStats 	"Mean power consumption" 	523.981148887
attr unit  mW
scalar sim.host[5].batteryStats 	"num devices" 	1
scalar sim.host[5].batteryStats 	"physical layer" 	0
scalar sim.host[5].batteryStats 	"device total (mWs)" 	7859.717232
scalar sim.host[5].batteryStats 	account 	0
scalar sim.host[5].batteryStats 	"energy (mWs)" 	0
scalar sim.host[5].batteryStats 	"time (s)" 	0
scalar sim.host[5].batteryStats 	account 	1
scalar sim.host[5].batteryStats 	"energy (mWs)" 	6868.769088
scalar sim.host[5].batteryStats 	"time (s)" 	13.311568
scalar sim.host[5].batteryStats 	account 	2
scalar sim.host[5].batteryStats 	"energy (mWs)" 	71.978544
scalar sim.host[5].batteryStats 	"time (s)" 	0.156816
scalar sim.host[5].batteryStats 	account 	3
scalar sim.host[5].batteryStats 	"energy (mWs)" 	0
scalar sim.host[5].batteryStats 	"time (s)" 	0
scalar sim.host[5].batteryStats 	account 	4
scalar sim.host[5].batteryStats 	"energy (mWs)" 	918.9696
scalar sim.host[5].batteryStats 	"time (s)" 	1.531616
scalar sim.host[5].appl 	"broadcast queued" 	10
scalar sim.host[5].appl 	"replies sent" 	87
scalar sim.host[5].appl 	"replies received" 	89
scalar sim.host[6].batteryStats 	nominal 	12420000
attr unit  mW-s
scalar sim.host[6].batteryStats 	total 	7804.6536005
attr unit  mW-s
scalar sim.host[6].batteryStats 	lifetime 	-1
attr unit  s
scalar sim.host[6].batteryStats 	"Mean power consumption" 	520.310240033
attr unit  mW
scalar sim.host[6].batteryStats 	"num devices" 	1
scalar sim.host[6].batteryStats 	"physical layer" 	0
scalar sim.host[6].batteryStats 	"device total (mWs)" 	7804.6536
scalar sim.host[6].batteryStats 	account 	0
scalar sim.host[6].batteryStats 	"energy (mWs)" 	0
scalar sim.host[6].batteryStats 	"time (s)" 	0
scalar sim.host[6].batteryStats 	account 	1
scalar sim.host[6].batteryStats 	"energy (mWs)" 	7317.841824
scalar sim.host[6].batteryStats 	"time (s)" 	14.181864
scalar sim.host[6].batteryStats 	account 	2
scalar sim.host[6].batteryStats 	"energy (mWs)" 	13.248576
scalar sim.host[6].batteryStats 	"time (s)" 	0.028864
scalar sim.host[6].batteryStats 	account 	3
scalar sim.host[6].batteryStats 	"energy (mWs)" 	0
scalar sim.host[6].batteryStats 	"time (s)" 	0
scalar sim.host[6].batteryStats 	account 	4
scalar sim.host[6].batteryStats 	"energy (mWs)" 	473.5632
scalar sim.host[6].batteryStats 	"time (s)" 	0.789272
scalar sim.host[6].appl 	"broadcast queued" 	10
scalar sim.host[6].appl 	"replies sent" 	11
scalar sim.host[6].appl 	"replies received" 	11
scalar sim.host[7].batteryStats 	nominal 	12420000
attr unit  mW-s
scalar sim.host[7].batteryStats 	total 	7872.04989731
attr unit  mW-s
scalar sim.host[7].batteryStats 	lifetime 	-1
attr unit  s
scalar sim.host[7].batteryStats 	"Mean power consumption" 	524.803326487
attr unit  mW
scalar sim.host[7].batteryStats 	"num devices" 	1
scalar sim.host[7].batteryStats 	"physical layer" 	0
scalar sim.host[7].batteryStats 	"device total (mWs)" 	7872.049896
scalar sim.host[7].batteryStats 	account 	0
scalar sim.host[7].batteryStats 	"energy (mWs)" 	0
scalar sim.host[7].batteryStats 	"time (s)" 	0
scalar sim.host[7].batteryStats 	account 	1
scalar sim.host[7].batteryStats 	"energy (mWs)" 	6822.411648
scalar sim.host[7].batteryStats 	"time (s)" 	13.221728
scalar sim.host[7].batteryStats 	account 	2
scalar sim.host[7].batteryStats 	"energy (mWs)" 	56.398248
scalar sim.host[7].batteryStats 	"time (s)" 	0.122872
scalar sim.host[7].batteryStats 	account 	3
scalar sim.host[7].batteryStats 	"energy (mWs)" 	0
scalar sim.host[7].batteryStats 	"time (s)" 	0
scalar sim.host[7].batteryStats 	account 	4
scalar sim.host[7].batteryStats 	"energy (mWs)" 	993.24
scalar sim.host[7].batteryStats 	"time (s)" 	1.6554
scalar sim.host[7].appl 	"broadcast queued" 	10
scalar sim.host[7].appl 	"replies sent" 	70
scalar sim.host[7].appl 	"replies received" 	68
scalar sim.host[8].batteryStats 	nominal 	12420000
attr unit  mW-s
scalar sim.host[8].batteryStats 	total 	7818.29764877
attr unit  mW-s
scalar sim.host[8].batteryStats 	lifetime 	-1
attr unit  s
scalar sim.host[8].batteryStats 	"Mean power consumption" 	521.219843251
attr unit  mW
scalar sim.host[8].batteryStats 	"num devices" 	1
scalar sim.host[8].batteryStats 	"physical layer" 	0
scalar sim.host[8].batteryStats 	"device total (mWs)" 	7818.297648
scalar sim.host[8].batteryStats 	account 	0
scalar sim.host[8].batteryStats 	"energy (mWs)" 	0
scalar sim.host[8].batteryStats 	"time (s)" 	0
scalar sim.host[8].batteryStats 	account 	1
scalar sim.host[8].batteryStats 	"energy (mWs)" 	7209.18048
scalar sim.host[8].batteryStats 	"time (s)" 	13.97128
scalar sim.host[8].batteryStats 	account 	2
scalar sim.host[8].batteryStats 	"energy (mWs)" 	26.416368
scalar sim.host[8].batteryStats 	"time (s)" 	0.057552
scalar sim.host[8].batteryStats 	account 	3
scalar sim.host[8].batteryStats 	"energy (mWs)" 	0
scalar sim.host[8].batteryStats 	"time (s)" 	0
scalar sim.host[8].batteryStats 	account 	4
scalar sim.host[8].batteryStats 	"energy (mWs)" 	582.7008
scalar sim.host[8].batteryStats 	"time (s)" 	0.971168
scalar sim.host[8].appl 	"broadcast queued" 	10
scalar sim.host[8].appl 	"replies sent" 	30
scalar sim.host[8].appl 	"replies received" 	30
scalar sim.host[9].batteryStats 	nominal 	12420000
attr unit  mW-s
scalar sim.host[9].batteryStats 	total 	7911.60472982
attr unit  mW-s
scalar sim.host[9].batteryStats 	lifetime 	-1
attr unit  s
scalar sim.host[9].batteryStats 	"Mean power consumption" 	527.440315321
attr unit  mW
scalar sim.host[9].batteryStats 	"num devices" 	1
scalar sim.host[9].batteryStats 	"physical layer" 	0
scalar sim.host[9].batteryStats 	"device total (mWs)" 	7911.604728
scalar sim.host[9].batteryStats 	account 	0
scalar sim.host[9].batteryStats 	"energy (mWs)" 	0
scalar sim.host[9].batteryStats 	"time (s)" 	0
scalar sim.host[9].batteryStats 	account 	1
scalar sim.host[9].batteryStats 	"energy (mWs)" 	6543.552864
scalar sim.host[9].batteryStats 	"time (s)" 	12.681304
scalar sim.host[9].batteryStats 	account 	2
scalar sim.host[9].batteryStats 	"energy (mWs)" 	75.411864
scalar sim.host[9].batteryStats 	"time (s)" 	0.164296
scalar sim.host[9].batteryStats 	account 	3
scalar sim.host[9].batteryStats 	"energy (mWs)" 	0
scalar sim.host[9].batteryStats 	"time (s)" 	0
scalar sim.host[9].batteryStats 	account 	4
scalar sim.host[9].batteryStats 	"energy (mWs)" 	1292.64
scalar sim.host[9].batteryStats 	"time (s)" 	2.1544
scalar sim.host[9].appl 	"broadcast queued" 	10
scalar sim.host[9].appl 	"replies sent" 	91
scalar sim.host[9].appl 	"replies received" 	86
scalar sim.host[10].batteryStats 	nominal 	12420000
attr unit  mW-s
scalar sim.host[10].batteryStats 	total 	7845.55872114
attr unit  mW-s
scalar sim.host[10].batteryStats 	lifetime 	-1
attr unit  s
scalar sim.host[10].batteryStats 	"Mean power consumption" 	523.037248076
attr unit  mW
scalar sim.host[10].batteryStats 	"num devices" 	1
scalar sim.host[10].batteryStats 	"physical layer" 	0
scalar sim.host[10].batteryStats 	"device total (mWs)" 	7845.55872
scalar sim.host[10].batteryStats 	account 	0
scalar sim.host[10].batteryStats 	"energy (mWs)" 	0
scalar sim.host[10].batteryStats 	"time (s)" 	0
scalar sim.host[10].batteryStats 	account 	1
scalar sim.host[10].batteryStats 	"energy (mWs)" 	6985.69056
scalar sim.host[10].batteryStats 	"time (s)" 	13.53816
scalar sim.host[10].batteryStats 	account 	2
scalar sim.host[10].batteryStats 	"energy (mWs)" 	56.10816
scalar sim.host[10].batteryStats 	"time (s)" 	0.12224
scalar sim.host[10].batteryStats 	account 	3
scalar sim.host[10].batteryStats 	"energy (mWs)" 	0
scalar sim.host[10].batteryStats 	"time (s)" 	0
scalar sim.host[10].batteryStats 	account 	4
scalar sim.host[10].batteryStats 	"energy (mWs)" 	803.76
scalar sim.host[10].batteryStats 	"time (s)" 	1.3396
scalar sim.host[10].appl 	"broadcast queued" 	10
scalar sim.host[10].appl 	"replies sent" 	70
scalar sim.host[10].appl 	"replies received" 	70
scalar sim.host[11].batteryStats 	nominal 	12420000
attr unit  mW-s
scalar sim.host[11].batteryStats 	total 	7859.35288931
attr unit  mW-s
scalar sim.host[11].batteryStats 	lifetime 	-1
attr unit  s
scalar sim.host[11].batteryStats 	"Mean power consumption" 	523.956859287
attr unit  mW
scalar sim.host[11].batteryStats 	"num devices" 	1
scalar sim.host[11].batteryStats 	"physical layer" 	0
scalar sim.host[11].batteryStats 	"device total (mWs)" 	7859.352888
scalar sim.host[11].batteryStats 	account 	0
scalar sim.host[11].batteryStats 	"energy (mWs)" 	0
scalar sim.host[11].batteryStats 	"time (s)" 	0
scalar sim.host[11].batteryStats 	account 	1
scalar sim.host[11].batteryStats 	"energy (mWs)" 	6868.769088
scalar sim.host[11].batteryStats 	"time (s)" 	13.311568
scalar sim.host[11].batteryStats 	account 	2
scalar sim.host[11].batteryStats 	"energy (mWs)" 	73.1646
scalar sim.host[11].batteryStats 	"time (s)" 	0.1594
scalar sim.host[11].batteryStats 	account 	3
scalar sim.host[11].batteryStats 	"energy (mWs)" 	0
scalar sim.host[11].batteryStats 	"time (s)" 	0
scalar sim.host[11].batteryStats 	account 	4
scalar sim.host[11].batteryStats 	"energy (mWs)" 	917.4192
scalar sim.host[11].batteryStats 	"time (s)" 	1.529032
scalar sim.host[11].appl 	"broadcast queued" 	10
scalar sim.host[11].appl 	"replies sent" 	90
scalar sim.host[11].appl 	"replies received" 	90
scalar sim.host[12].batteryStats 	nominal 	12420000
attr unit  mW-s
scalar sim.host[12].batteryStats 	total 	7822.73757699
attr unit  mW-s
scalar sim.host[12].batteryStats 	lifetime 	-1
attr unit  s
scalar sim.host[12].batteryStats 	"Mean power consumption" 	521.515838466
attr unit  mW
scalar sim.host[12].batteryStats 	"num devices" 	1
scalar sim.host[12].batteryStats 	"physical layer" 	0
scalar sim.host[12].batteryStats 	"device total (mWs)" 	7822.737576
scalar sim.host[12].batteryStats 	account 	0
scalar sim.host[12].batteryStats 	"energy (mWs)" 	0
scalar sim.host[12].batteryStats 	"time (s)" 	0
scalar sim.host[12].batteryStats 	account 	1
scalar sim.host[12].batteryStats 	"energy (mWs)" 	7108.007328
scalar sim.host[12].batteryStats 	"time (s)" 	13.775208
scalar sim.host[12].batteryStats 	account 	2
scalar sim.host[12].batteryStats 	"energy (mWs)" 	65.578248
scalar sim.host[12].batteryStats 	"time (s)" 	0.142872
scalar sim.host[12].batteryStats 	account 	3
scalar sim.host[12].batteryStats 	"energy (mWs)" 	0
scalar sim.host[12].batteryStats 	"time (s)" 	0
scalar sim.host[12].batteryStats 	account 	4
scalar sim.host[12].batteryStats 	"energy (mWs)" 	649.152
scalar sim.host[12].batteryStats 	"time (s)" 	1.08192
scalar sim.host[12].appl 	"broadcast queued" 	10
scalar sim.host[12].appl 	"replies sent" 	80
scalar sim.host[12].appl 	"replies received" 	79
scalar sim.host[13].batteryStats 	nominal 	12420000
attr unit  mW-s
scalar sim.host[13].batteryStats 	total 	7842.14200917
attr unit  mW-s
scalar sim.host[13].batteryStats 	lifetime 	-1
attr unit  s
scalar sim.host[13].batteryStats 	"Mean power consumption" 	522.809467278
attr unit  mW
scalar sim.host[13].batteryStats 	"num devices" 	1
scalar sim.host[13].batteryStats 	"physical layer" 	0
scalar sim.host[13].batteryStats 	"device total (mWs)" 	7842.142008
scalar sim.host[13].batteryStats 	account 	0
scalar sim.host[13].batteryStats 	"energy (mWs)" 	0
scalar sim.host[13].batteryStats 	"time (s)" 	0
scalar sim.host[13].batteryStats 	account 	1
scalar sim.host[13].batteryStats 	"energy (mWs)" 	6985.69056
scalar sim.host[13].batteryStats 	"time (s)" 	13.53816
scalar sim.host[13].batteryStats 	account 	2
scalar sim.host[13].batteryStats 	"energy (mWs)" 	67.230648
scalar sim.host[13].batteryStats 	"time (s)" 	0.146472
scalar sim.host[13].batteryStats 	account 	3
scalar sim.host[13].batteryStats 	"energy (mWs)" 	0
scalar sim.host[13].batteryStats 	"time (s)" 	0
scalar sim.host[13].batteryStats 	account 	4
scalar sim.host[13].batteryStats 	"energy (mWs)" 	789.2208
scalar sim.host[13].batteryStats 	"time (s)" 	1.315368
scalar sim.host[13].appl 	"broadcast queued" 	10
scalar sim.host[13].appl 	"replies sent" 	77
scalar sim.host[13].appl 	"replies received" 	77
scalar sim.host[14].batteryStats 	nominal 	12420000
attr unit  mW-s
scalar sim.host[14].batteryStats 	total 	7856.20855296
attr unit  mW-s
scalar sim.host[14].batteryStats 	lifetime 	-1
attr unit  s
scalar sim.host[14].batteryStats 	"Mean power consumption" 	523.747236864
attr unit  mW
scalar sim.host[14].batteryStats 	"num devices" 	1
scalar sim.host[14].batteryStats 	"physical layer" 	0
scalar sim.host[14].batteryStats 	"device total (mWs)" 	7856.208552
scalar sim.host[14].batteryStats 	account 	0
scalar sim.host[14].batteryStats 	"energy (mWs)" 	0
scalar sim.host[14].batteryStats 	"time (s)" 	0
scalar sim.host[14].batteryStats 	account 	1
scalar sim.host[14].batteryStats 	"energy (mWs)" 	7002.51216
scalar sim.host[14].batteryStats 	"time (s)" 	13.57076
scalar sim.host[14].batteryStats 	account 	2
scalar sim.host[14].batteryStats 	"energy (mWs)" 	12.525192
scalar sim.host[14].batteryStats 	"time (s)" 	0.027288
scalar sim.host[14].batteryStats 	account 	3
scalar sim.host[14].batteryStats 	"energy (mWs)" 	0
scalar sim.host[14].batteryStats 	"time (s)" 	0
scalar sim.host[14].batteryStats 	account 	4
scalar sim.host[14].batteryStats 	"energy (mWs)" 	841.1712
scalar sim.host[14].batteryStats 	"time (s)" 	1.401952
scalar sim.host[14].appl 	"broadcast queued" 	10
scalar sim.host[14].appl 	"replies sent" 	11
scalar sim.host[14].appl 	"replies received" 	10
scalar sim.host[15].batteryStats 	nominal 	12420000
attr unit  mW-s
scalar sim.host[15].batteryStats 	total 	7824.46228898
attr unit  mW-s
scalar sim.host[15].batteryStats 	lifetime 	-1
attr unit  s
scalar sim.host[15].batteryStats 	"Mean power consumption" 	521.630819265
attr unit  mW
scalar sim.host[15].batteryStats 	"num devices" 	1
scalar sim.host[15].batteryStats 	"physical layer" 	0
scalar sim.host[15].batteryStats 	"device total (mWs)" 	7824.462288
scalar sim.host[15].batteryStats 	account 	0
scalar sim.host[15].batteryStats 	"energy (mWs)" 	0
scalar sim.host[15].batteryStats 	"time (s)" 	0
scalar sim.host[15].batteryStats 	account 	1
scalar sim.host[15].batteryStats 	"energy (mWs)" 	7108.007328
scalar sim.host[15].batteryStats 	"time (s)" 	13.775208
scalar sim.host[15].batteryStats 	account 	2
scalar sim.host[15].batteryStats 	"energy (mWs)" 	59.96376
scalar sim.host[15].batteryStats 	"time (s)" 	0.13064
scalar sim.host[15].batteryStats 	account 	3
scalar sim.host[15].batteryStats 	"energy (mWs)" 	0
scalar sim.host[15].batteryStats 	"time (s)" 	0
scalar sim.host[15].batteryStats 	account 	4
scalar sim.host[15].batteryStats 	"energy (mWs)" 	656.4912
scalar sim.host[15].batteryStats 	"time (s)" 	1.094152
scalar sim.host[15].appl 	"broadcast queued" 	10
scalar sim.host[15].appl 	"replies sent" 	72
scalar sim.host[15].appl 	"replies received" 	73
scalar sim.host[16].batteryStats 	nominal 	12420000
attr unit  mW-s
scalar sim.host[16].batteryStats 	total 	7822.36939297
attr unit  mW-s
scalar sim.host[16].batteryStats 	lifetime 	-1
attr unit  s
scalar sim.host[16].batteryStats 	"Mean power consumption" 	521.491292865
attr unit  mW
scalar sim.host[16].batteryStats 	"num devices" 	1
scalar sim.host[16].batteryStats 	"physical layer" 	0
scalar sim.host[16].batteryStats 	"device total (mWs)" 	7822.369392
scalar sim.host[16].batteryStats 	account 	0
scalar sim.host[16].batteryStats 	"energy (mWs)" 	0
scalar sim.host[16].batteryStats 	"time (s)" 	0
scalar sim.host[16].batteryStats 	account 	1
scalar sim.host[16].batteryStats 	"energy (mWs)" 	7122.748416
scalar sim.host[16].batteryStats 	"time (s)" 	13.803776
scalar sim.host[16].batteryStats 	account 	2
scalar sim.host[16].batteryStats 	"energy (mWs)" 	58.964976
scalar sim.host[16].batteryStats 	"time (s)" 	0.128464
scalar sim.host[16].batteryStats 	account 	3
scalar sim.host[16].batteryStats 	"energy (mWs)" 	0
scalar sim.host[16].batteryStats 	"time (s)" 	0
scalar sim.host[16].batteryStats 	account 	4
scalar sim.host[16].batteryStats 	"energy (mWs)" 	640.656
scalar sim.host[16].batteryStats 	"time (s)" 	1.06776
scalar sim.host[16].appl 	"broadcast queued" 	10
scalar sim.host[16].appl 	"replies sent" 	69
scalar sim.host[16].appl 	"replies received" 	67
scalar sim.host[17].batteryStats 	nominal 	12420000
attr unit  mW-s
scalar sim.host[17].batteryStats 	total 	7911.62390582
attr unit  mW-s
scalar sim.host[17].batteryStats 	lifetime 	-1
attr unit  s
scalar sim.host[17].batteryStats 	"Mean power consumption" 	527.441593721
attr unit  mW
scalar sim.host[17].batteryStats 	"num devices" 	1
scalar sim.host[17].batteryStats 	"physical layer" 	0
scalar sim.host[17].batteryStats 	"device total (mWs)" 	7911.623904
scalar sim.host[17].batteryStats 	account 	0
scalar sim.host[17].batteryStats 	"energy (mWs)" 	0
scalar sim.host[17].batteryStats 	"time (s)" 	0
scalar sim.host[17].batteryStats 	account 	1
scalar sim.host[17].batteryStats 	"energy (mWs)" 	6543.552864
scalar sim.host[17].batteryStats 	"time (s)" 	12.681304
scalar sim.host[17].batteryStats 	account 	2
scalar sim.host[17].batteryStats 	"energy (mWs)" 	75.34944
scalar sim.host[17].batteryStats 	"time (s)" 	0.16416
scalar sim.host[17].batteryStats 	account 	3
scalar sim.host[17].batteryStats 	"energy (mWs)" 	0
scalar sim.host[17].batteryStats 	"time (s)" 	0
scalar sim.host[17].batteryStats 	account 	4
scalar sim.host[17].batteryStats 	"energy (mWs)" 	1292.7216
scalar sim.host[17].batteryStats 	"time (s)" 	2.154536
scalar sim.host[17].appl 	"broadcast queued" 	10
scalar sim.host[17].appl 	"replies sent" 	88
scalar sim.host[17].appl 	"replies received" 	79
scalar sim.host[18].batteryStats 	nominal 	12420000
attr unit  mW-s
scalar sim.host[18].batteryStats 	total 	7845.55872114
attr unit  mW-s
scalar sim.host[18].batteryStats 	lifetime 	-1
attr unit  s
scalar sim.host[18].batteryStats 	"Mean power consumption" 	523.037248076
attr unit  mW
scalar sim.host[18].batteryStats 	"num devices" 	1
scalar sim.host[18].batteryStats 	"physical layer" 	0
scalar sim.host[18].batteryStats 	"device total (mWs)" 	7845.55872
scalar sim.host[18].batteryStats 	account 	0
scalar sim.host[18].batteryStats 	"energy (mWs)" 	0
scalar sim.host[18].batteryStats 	"time (s)" 	0
scalar sim.host[18].batteryStats 	account 	1
scalar sim.host[18].batteryStats 	"energy (mWs)" 	6985.69056
scalar sim.host[18].batteryStats 	"time (s)" 	13.53816
scalar sim.host[18].batteryStats 	account 	2
scalar sim.host[18].batteryStats 	"energy (mWs)" 	56.10816
scalar sim.host[18].batteryStats 	"time (s)" 	0.12224
scalar sim.host[18].batteryStats 	account 	3
scalar sim.host[18].batteryStats 	"energy (mWs)" 	0
scalar sim.host[18].batteryStats 	"time (s)" 	0
scalar sim.host[18].batteryStats 	account 	4
scalar sim.host[18].batteryStats 	"energy (mWs)" 	803.76
scalar sim.host[18].batteryStats 	"time (s)" 	1.3396
scalar sim.host[18].appl 	"broadcast queued" 	10
scalar sim.host[18].appl 	"replies sent" 	70
scalar sim.host[18].appl 	"replies received" 	70
scalar sim.host[19].batteryStats 	nominal 	12420000
attr unit  mW-s
scalar sim.host[19].batteryStats 	total 	7844.81649715
attr unit  mW-s
scalar sim.host[19].batteryStats 	lifetime 	-1
attr unit  s
scalar sim.host[19].batteryStats 	"Mean power consumption" 	522.987766476
attr unit  mW
scalar sim.host[19].batteryStats 	"num devices" 	1
scalar sim.host[19].batteryStats 	"physical layer" 	0
scalar sim.host[19].batteryStats 	"device total (mWs)" 	7844.816496
scalar sim.host[19].batteryStats 	account 	0
scalar sim.host[19].batteryStats 	"energy (mWs)" 	0
scalar sim.host[19].batteryStats 	"time (s)" 	0
scalar sim.host[19].batteryStats 	account 	1
scalar sim.host[19].batteryStats 	"energy (mWs)" 	6985.69056
scalar sim.host[19].batteryStats 	"time (s)" 	13.53816
scalar sim.host[19].batteryStats 	account 	2
scalar sim.host[19].batteryStats 	"energy (mWs)" 	58.524336
scalar sim.host[19].batteryStats 	"time (s)" 	0.127504
scalar sim.host[19].batteryStats 	account 	3
scalar sim.host[19].batteryStats 	"energy (mWs)" 	0
scalar sim.host[19].batteryStats 	"time (s)" 	0
scalar sim.host[19].batteryStats 	account 	4
scalar sim.host[19].batteryStats 	"energy (mWs)" 	800.6016
scalar sim.host[19].batteryStats 	"time (s)" 	1.334336
scalar sim.host[19].appl 	"broadcast queued" 	10
scalar sim.host[19].appl 	"replies sent" 	72
scalar sim.host[19].appl 	"replies received" 	72
