version 2
run One-0-20110329-15:17:50-9087
attr configname One
attr datetime 20110329-15:17:50
attr experiment One
attr inifile omnetpp.ini
attr iterationvars ""
attr iterationvars2 $repetition=0
attr measurement ""
attr network sim
attr processid 9087
attr repetition 0
attr replication #0
attr resultdir results
attr runnumber 0
attr seedset 0

scalar sim.host[0].batteryStats 	nominal 	20000
attr unit  mW-s
scalar sim.host[0].batteryStats 	total 	50.01984
attr unit  mW-s
scalar sim.host[0].batteryStats 	lifetime 	-1
attr unit  s
scalar sim.host[0].batteryStats 	"Mean power consumption" 	5.001984
attr unit  mW
scalar sim.host[0].batteryStats 	"num devices" 	1
scalar sim.host[0].batteryStats 	"physical layer" 	0
scalar sim.host[0].batteryStats 	"device total (mWs)" 	50.01984
scalar sim.host[0].batteryStats 	account 	0
scalar sim.host[0].batteryStats 	"energy (mWs)" 	0
scalar sim.host[0].batteryStats 	"time (s)" 	0
scalar sim.host[0].batteryStats 	account 	1
scalar sim.host[0].batteryStats 	"energy (mWs)" 	49.9752
scalar sim.host[0].batteryStats 	"time (s)" 	9.99504
scalar sim.host[0].batteryStats 	account 	2
scalar sim.host[0].batteryStats 	"energy (mWs)" 	0.02728
scalar sim.host[0].batteryStats 	"time (s)" 	0.00248
scalar sim.host[0].batteryStats 	account 	3
scalar sim.host[0].batteryStats 	"energy (mWs)" 	0
scalar sim.host[0].batteryStats 	"time (s)" 	0
scalar sim.host[0].batteryStats 	account 	4
scalar sim.host[0].batteryStats 	"energy (mWs)" 	0.01736
scalar sim.host[0].batteryStats 	"time (s)" 	0.00248
scalar sim.host[0].appl 	"broadcast queued" 	1
scalar sim.host[0].appl 	"replies sent" 	1
scalar sim.host[0].appl 	"replies received" 	1
scalar sim.host[1].batteryStats 	nominal 	20000
attr unit  mW-s
scalar sim.host[1].batteryStats 	total 	50.01984
attr unit  mW-s
scalar sim.host[1].batteryStats 	lifetime 	-1
attr unit  s
scalar sim.host[1].batteryStats 	"Mean power consumption" 	5.001984
attr unit  mW
scalar sim.host[1].batteryStats 	"num devices" 	1
scalar sim.host[1].batteryStats 	"physical layer" 	0
scalar sim.host[1].batteryStats 	"device total (mWs)" 	50.01984
scalar sim.host[1].batteryStats 	account 	0
scalar sim.host[1].batteryStats 	"energy (mWs)" 	0
scalar sim.host[1].batteryStats 	"time (s)" 	0
scalar sim.host[1].batteryStats 	account 	1
scalar sim.host[1].batteryStats 	"energy (mWs)" 	49.9752
scalar sim.host[1].batteryStats 	"time (s)" 	9.99504
scalar sim.host[1].batteryStats 	account 	2
scalar sim.host[1].batteryStats 	"energy (mWs)" 	0.02728
scalar sim.host[1].batteryStats 	"time (s)" 	0.00248
scalar sim.host[1].batteryStats 	account 	3
scalar sim.host[1].batteryStats 	"energy (mWs)" 	0
scalar sim.host[1].batteryStats 	"time (s)" 	0
scalar sim.host[1].batteryStats 	account 	4
scalar sim.host[1].batteryStats 	"energy (mWs)" 	0.01736
scalar sim.host[1].batteryStats 	"time (s)" 	0.00248
scalar sim.host[1].appl 	"broadcast queued" 	1
scalar sim.host[1].appl 	"replies sent" 	1
scalar sim.host[1].appl 	"replies received" 	1
