version 2
run Seven-0-20110329-15:17:54-9093
attr configname Seven
attr datetime 20110329-15:17:54
attr experiment Seven
attr inifile omnetpp.ini
attr iterationvars ""
attr iterationvars2 $repetition=0
attr measurement ""
attr network sim
attr processid 9093
attr repetition 0
attr replication #0
attr resultdir results
attr runnumber 0
attr seedset 0

scalar sim.host[2].appl 	HostState::FAILED 	3.7
scalar sim.host[0].appl 	HostState::FAILED 	7.3
scalar sim.host[1].appl 	HostState::FAILED 	7.3
scalar sim.host[0].batteryStats 	nominal 	3600
attr unit  mW-s
scalar sim.host[0].batteryStats 	total 	3646.717064
attr unit  mW-s
scalar sim.host[0].batteryStats 	lifetime 	7.3
attr unit  s
scalar sim.host[0].batteryStats 	"Mean power consumption" 	499.55028274
attr unit  mW
scalar sim.host[0].batteryStats 	"num devices" 	1
scalar sim.host[0].batteryStats 	"physical layer" 	0
scalar sim.host[0].batteryStats 	"device total (mWs)" 	3646.717064
scalar sim.host[0].batteryStats 	account 	0
scalar sim.host[0].batteryStats 	"energy (mWs)" 	0
scalar sim.host[0].batteryStats 	"time (s)" 	0
scalar sim.host[0].batteryStats 	account 	1
scalar sim.host[0].batteryStats 	"energy (mWs)" 	3646.708
scalar sim.host[0].batteryStats 	"time (s)" 	7.293416
scalar sim.host[0].batteryStats 	account 	2
scalar sim.host[0].batteryStats 	"energy (mWs)" 	0.00496
scalar sim.host[0].batteryStats 	"time (s)" 	0.00248
scalar sim.host[0].batteryStats 	account 	3
scalar sim.host[0].batteryStats 	"energy (mWs)" 	0
scalar sim.host[0].batteryStats 	"time (s)" 	0
scalar sim.host[0].batteryStats 	account 	4
scalar sim.host[0].batteryStats 	"energy (mWs)" 	0.004104
scalar sim.host[0].batteryStats 	"time (s)" 	0.004104
scalar sim.host[0].appl 	"broadcast queued" 	1
scalar sim.host[0].appl 	"replies sent" 	1
scalar sim.host[0].appl 	"replies received" 	1
scalar sim.host[1].batteryStats 	nominal 	3600
attr unit  mW-s
scalar sim.host[1].batteryStats 	total 	3646.71756
attr unit  mW-s
scalar sim.host[1].batteryStats 	lifetime 	7.3
attr unit  s
scalar sim.host[1].batteryStats 	"Mean power consumption" 	499.550350685
attr unit  mW
scalar sim.host[1].batteryStats 	"num devices" 	1
scalar sim.host[1].batteryStats 	"physical layer" 	0
scalar sim.host[1].batteryStats 	"device total (mWs)" 	3646.71756
scalar sim.host[1].batteryStats 	account 	0
scalar sim.host[1].batteryStats 	"energy (mWs)" 	0
scalar sim.host[1].batteryStats 	"time (s)" 	0
scalar sim.host[1].batteryStats 	account 	1
scalar sim.host[1].batteryStats 	"energy (mWs)" 	3646.708
scalar sim.host[1].batteryStats 	"time (s)" 	7.293416
scalar sim.host[1].batteryStats 	account 	2
scalar sim.host[1].batteryStats 	"energy (mWs)" 	0.005952
scalar sim.host[1].batteryStats 	"time (s)" 	0.002976
scalar sim.host[1].batteryStats 	account 	3
scalar sim.host[1].batteryStats 	"energy (mWs)" 	0
scalar sim.host[1].batteryStats 	"time (s)" 	0
scalar sim.host[1].batteryStats 	account 	4
scalar sim.host[1].batteryStats 	"energy (mWs)" 	0.003608
scalar sim.host[1].batteryStats 	"time (s)" 	0.003608
scalar sim.host[1].appl 	"broadcast queued" 	1
scalar sim.host[1].appl 	"replies sent" 	1
scalar sim.host[1].appl 	"replies received" 	2
scalar sim.host[2].batteryStats 	nominal 	1800
attr unit  mW-s
scalar sim.host[2].batteryStats 	total 	1847.953232
attr unit  mW-s
scalar sim.host[2].batteryStats 	lifetime 	3.7
attr unit  s
scalar sim.host[2].batteryStats 	"Mean power consumption" 	253.144278356
attr unit  mW
scalar sim.host[2].batteryStats 	"num devices" 	1
scalar sim.host[2].batteryStats 	"physical layer" 	0
scalar sim.host[2].batteryStats 	"device total (mWs)" 	1847.953232
scalar sim.host[2].batteryStats 	account 	0
scalar sim.host[2].batteryStats 	"energy (mWs)" 	0
scalar sim.host[2].batteryStats 	"time (s)" 	0
scalar sim.host[2].batteryStats 	account 	1
scalar sim.host[2].batteryStats 	"energy (mWs)" 	1847.948
scalar sim.host[2].batteryStats 	"time (s)" 	3.695896
scalar sim.host[2].batteryStats 	account 	2
scalar sim.host[2].batteryStats 	"energy (mWs)" 	0.002256
scalar sim.host[2].batteryStats 	"time (s)" 	0.001128
scalar sim.host[2].batteryStats 	account 	3
scalar sim.host[2].batteryStats 	"energy (mWs)" 	0
scalar sim.host[2].batteryStats 	"time (s)" 	0
scalar sim.host[2].batteryStats 	account 	4
scalar sim.host[2].batteryStats 	"energy (mWs)" 	0.002976
scalar sim.host[2].batteryStats 	"time (s)" 	0.002976
scalar sim.host[2].appl 	"broadcast queued" 	0
scalar sim.host[2].appl 	"replies sent" 	1
scalar sim.host[2].appl 	"replies received" 	0
