version 2
run Six-0-20110329-15:17:53-9092
attr configname Six
attr datetime 20110329-15:17:53
attr experiment Six
attr inifile omnetpp.ini
attr iterationvars ""
attr iterationvars2 $repetition=0
attr measurement ""
attr network sim
attr processid 9092
attr repetition 0
attr replication #0
attr resultdir results
attr runnumber 0
attr seedset 0

scalar sim.host[2].appl 	HostState::FAILED 	7.04711648591
scalar sim.host[0].batteryStats 	nominal 	3600
attr unit  mW-s
scalar sim.host[0].batteryStats 	total 	1315.33652
attr unit  mW-s
scalar sim.host[0].batteryStats 	lifetime 	-1
attr unit  s
scalar sim.host[0].batteryStats 	"Mean power consumption" 	131.533652
attr unit  mW
scalar sim.host[0].batteryStats 	"num devices" 	1
scalar sim.host[0].batteryStats 	"physical layer" 	0
scalar sim.host[0].batteryStats 	"device total (mWs)" 	1315.33652
scalar sim.host[0].batteryStats 	account 	0
scalar sim.host[0].batteryStats 	"energy (mWs)" 	0
scalar sim.host[0].batteryStats 	"time (s)" 	0
scalar sim.host[0].batteryStats 	account 	1
scalar sim.host[0].batteryStats 	"energy (mWs)" 	46.57572
scalar sim.host[0].batteryStats 	"time (s)" 	9.315144
scalar sim.host[0].batteryStats 	account 	2
scalar sim.host[0].batteryStats 	"energy (mWs)" 	548.6544
scalar sim.host[0].batteryStats 	"time (s)" 	0.261264
scalar sim.host[0].batteryStats 	account 	3
scalar sim.host[0].batteryStats 	"energy (mWs)" 	0
scalar sim.host[0].batteryStats 	"time (s)" 	0
scalar sim.host[0].batteryStats 	account 	4
scalar sim.host[0].batteryStats 	"energy (mWs)" 	720.1064
scalar sim.host[0].batteryStats 	"time (s)" 	0.423592
scalar sim.host[0].appl 	"broadcast queued" 	100
scalar sim.host[0].appl 	"replies sent" 	92
scalar sim.host[0].appl 	"replies received" 	140
scalar sim.host[1].batteryStats 	nominal 	3600
attr unit  mW-s
scalar sim.host[1].batteryStats 	total 	1321.74184
attr unit  mW-s
scalar sim.host[1].batteryStats 	lifetime 	-1
attr unit  s
scalar sim.host[1].batteryStats 	"Mean power consumption" 	132.174184
attr unit  mW
scalar sim.host[1].batteryStats 	"num devices" 	1
scalar sim.host[1].batteryStats 	"physical layer" 	0
scalar sim.host[1].batteryStats 	"device total (mWs)" 	1321.74184
scalar sim.host[1].batteryStats 	account 	0
scalar sim.host[1].batteryStats 	"energy (mWs)" 	0
scalar sim.host[1].batteryStats 	"time (s)" 	0
scalar sim.host[1].batteryStats 	account 	1
scalar sim.host[1].batteryStats 	"energy (mWs)" 	46.57864
scalar sim.host[1].batteryStats 	"time (s)" 	9.315728
scalar sim.host[1].batteryStats 	account 	2
scalar sim.host[1].batteryStats 	"energy (mWs)" 	587.4792
scalar sim.host[1].batteryStats 	"time (s)" 	0.279752
scalar sim.host[1].batteryStats 	account 	3
scalar sim.host[1].batteryStats 	"energy (mWs)" 	0
scalar sim.host[1].batteryStats 	"time (s)" 	0
scalar sim.host[1].batteryStats 	account 	4
scalar sim.host[1].batteryStats 	"energy (mWs)" 	687.684
scalar sim.host[1].batteryStats 	"time (s)" 	0.40452
scalar sim.host[1].appl 	"broadcast queued" 	100
scalar sim.host[1].appl 	"replies sent" 	91
scalar sim.host[1].appl 	"replies received" 	179
scalar sim.host[2].batteryStats 	nominal 	1080
attr unit  mW-s
scalar sim.host[2].batteryStats 	total 	1081.58874243
attr unit  mW-s
scalar sim.host[2].batteryStats 	lifetime 	7.04711648591
attr unit  s
scalar sim.host[2].batteryStats 	"Mean power consumption" 	108.158874243
attr unit  mW
scalar sim.host[2].batteryStats 	"num devices" 	1
scalar sim.host[2].batteryStats 	"physical layer" 	0
scalar sim.host[2].batteryStats 	"device total (mWs)" 	1081.58874243
scalar sim.host[2].batteryStats 	account 	0
scalar sim.host[2].batteryStats 	"energy (mWs)" 	0
scalar sim.host[2].batteryStats 	"time (s)" 	0
scalar sim.host[2].batteryStats 	account 	1
scalar sim.host[2].batteryStats 	"energy (mWs)" 	32.3351424296
scalar sim.host[2].batteryStats 	"time (s)" 	6.46702848591
scalar sim.host[2].batteryStats 	account 	2
scalar sim.host[2].batteryStats 	"energy (mWs)" 	331.296
scalar sim.host[2].batteryStats 	"time (s)" 	0.15776
scalar sim.host[2].batteryStats 	account 	3
scalar sim.host[2].batteryStats 	"energy (mWs)" 	0
scalar sim.host[2].batteryStats 	"time (s)" 	0
scalar sim.host[2].batteryStats 	account 	4
scalar sim.host[2].batteryStats 	"energy (mWs)" 	717.9576
scalar sim.host[2].batteryStats 	"time (s)" 	0.422328
scalar sim.host[2].appl 	"broadcast queued" 	0
scalar sim.host[2].appl 	"replies sent" 	140
scalar sim.host[2].appl 	"replies received" 	0
