version 2
run Ten-0-20110329-15:18:29-9097
attr configname Ten
attr datetime 20110329-15:18:29
attr experiment Ten
attr inifile omnetpp.ini
attr iterationvars ""
attr iterationvars2 $repetition=0
attr measurement ""
attr network sim
attr processid 9097
attr repetition 0
attr replication #0
attr resultdir results
attr runnumber 0
attr seedset 0

scalar sim.host[0].batteryStats 	nominal 	12420000
attr unit  mW-s
scalar sim.host[0].batteryStats 	total 	8205.04363628
attr unit  mW-s
scalar sim.host[0].batteryStats 	lifetime 	-1
attr unit  s
scalar sim.host[0].batteryStats 	"Mean power consumption" 	547.002909085
attr unit  mW
scalar sim.host[0].batteryStats 	"num devices" 	1
scalar sim.host[0].batteryStats 	"physical layer" 	0
scalar sim.host[0].batteryStats 	"device total (mWs)" 	8205.043632
scalar sim.host[0].batteryStats 	account 	0
scalar sim.host[0].batteryStats 	"energy (mWs)" 	0
scalar sim.host[0].batteryStats 	"time (s)" 	0
scalar sim.host[0].batteryStats 	account 	1
scalar sim.host[0].batteryStats 	"energy (mWs)" 	4438.743456
scalar sim.host[0].batteryStats 	"time (s)" 	8.602216
scalar sim.host[0].batteryStats 	account 	2
scalar sim.host[0].batteryStats 	"energy (mWs)" 	235.588176
scalar sim.host[0].batteryStats 	"time (s)" 	0.513264
scalar sim.host[0].batteryStats 	account 	3
scalar sim.host[0].batteryStats 	"energy (mWs)" 	0
scalar sim.host[0].batteryStats 	"time (s)" 	0
scalar sim.host[0].batteryStats 	account 	4
scalar sim.host[0].batteryStats 	"energy (mWs)" 	3530.712
scalar sim.host[0].batteryStats 	"time (s)" 	5.88452
scalar sim.host[0].appl 	"broadcast queued" 	50
scalar sim.host[0].appl 	"replies sent" 	290
scalar sim.host[0].appl 	"replies received" 	252
scalar sim.host[1].batteryStats 	nominal 	12420000
attr unit  mW-s
scalar sim.host[1].batteryStats 	total 	8081.84721923
attr unit  mW-s
scalar sim.host[1].batteryStats 	lifetime 	-1
attr unit  s
scalar sim.host[1].batteryStats 	"Mean power consumption" 	538.789814615
attr unit  mW
scalar sim.host[1].batteryStats 	"num devices" 	1
scalar sim.host[1].batteryStats 	"physical layer" 	0
scalar sim.host[1].batteryStats 	"device total (mWs)" 	8081.847216
scalar sim.host[1].batteryStats 	account 	0
scalar sim.host[1].batteryStats 	"energy (mWs)" 	0
scalar sim.host[1].batteryStats 	"time (s)" 	0
scalar sim.host[1].batteryStats 	account 	1
scalar sim.host[1].batteryStats 	"energy (mWs)" 	5302.812288
scalar sim.host[1].batteryStats 	"time (s)" 	10.276768
scalar sim.host[1].batteryStats 	account 	2
scalar sim.host[1].batteryStats 	"energy (mWs)" 	178.730928
scalar sim.host[1].batteryStats 	"time (s)" 	0.389392
scalar sim.host[1].batteryStats 	account 	3
scalar sim.host[1].batteryStats 	"energy (mWs)" 	0
scalar sim.host[1].batteryStats 	"time (s)" 	0
scalar sim.host[1].batteryStats 	account 	4
scalar sim.host[1].batteryStats 	"energy (mWs)" 	2600.304
scalar sim.host[1].batteryStats 	"time (s)" 	4.33384
scalar sim.host[1].appl 	"broadcast queued" 	50
scalar sim.host[1].appl 	"replies sent" 	207
scalar sim.host[1].appl 	"replies received" 	153
scalar sim.host[2].batteryStats 	nominal 	12420000
attr unit  mW-s
scalar sim.host[2].batteryStats 	total 	8092.56506717
attr unit  mW-s
scalar sim.host[2].batteryStats 	lifetime 	-1
attr unit  s
scalar sim.host[2].batteryStats 	"Mean power consumption" 	539.504337811
attr unit  mW
scalar sim.host[2].batteryStats 	"num devices" 	1
scalar sim.host[2].batteryStats 	"physical layer" 	0
scalar sim.host[2].batteryStats 	"device total (mWs)" 	8092.565064
scalar sim.host[2].batteryStats 	account 	0
scalar sim.host[2].batteryStats 	"energy (mWs)" 	0
scalar sim.host[2].batteryStats 	"time (s)" 	0
scalar sim.host[2].batteryStats 	account 	1
scalar sim.host[2].batteryStats 	"energy (mWs)" 	5271.418848
scalar sim.host[2].batteryStats 	"time (s)" 	10.215928
scalar sim.host[2].batteryStats 	account 	2
scalar sim.host[2].batteryStats 	"energy (mWs)" 	160.477416
scalar sim.host[2].batteryStats 	"time (s)" 	0.349624
scalar sim.host[2].batteryStats 	account 	3
scalar sim.host[2].batteryStats 	"energy (mWs)" 	0
scalar sim.host[2].batteryStats 	"time (s)" 	0
scalar sim.host[2].batteryStats 	account 	4
scalar sim.host[2].batteryStats 	"energy (mWs)" 	2660.6688
scalar sim.host[2].batteryStats 	"time (s)" 	4.434448
scalar sim.host[2].appl 	"broadcast queued" 	50
scalar sim.host[2].appl 	"replies sent" 	187
scalar sim.host[2].appl 	"replies received" 	166
scalar sim.host[3].batteryStats 	nominal 	12420000
attr unit  mW-s
scalar sim.host[3].batteryStats 	total 	8187.97368423
attr unit  mW-s
scalar sim.host[3].batteryStats 	lifetime 	-1
attr unit  s
scalar sim.host[3].batteryStats 	"Mean power consumption" 	545.864912282
attr unit  mW
scalar sim.host[3].batteryStats 	"num devices" 	1
scalar sim.host[3].batteryStats 	"physical layer" 	0
scalar sim.host[3].batteryStats 	"device total (mWs)" 	8187.97368
scalar sim.host[3].batteryStats 	account 	0
scalar sim.host[3].batteryStats 	"energy (mWs)" 	0
scalar sim.host[3].batteryStats 	"time (s)" 	0
scalar sim.host[3].batteryStats 	account 	1
scalar sim.host[3].batteryStats 	"energy (mWs)" 	4489.05552
scalar sim.host[3].batteryStats 	"time (s)" 	8.69972
scalar sim.host[3].batteryStats 	account 	2
scalar sim.host[3].batteryStats 	"energy (mWs)" 	264.49416
scalar sim.host[3].batteryStats 	"time (s)" 	0.57624
scalar sim.host[3].batteryStats 	account 	3
scalar sim.host[3].batteryStats 	"energy (mWs)" 	0
scalar sim.host[3].batteryStats 	"time (s)" 	0
scalar sim.host[3].batteryStats 	account 	4
scalar sim.host[3].batteryStats 	"energy (mWs)" 	3434.424
scalar sim.host[3].batteryStats 	"time (s)" 	5.72404
scalar sim.host[3].appl 	"broadcast queued" 	50
scalar sim.host[3].appl 	"replies sent" 	303
scalar sim.host[3].appl 	"replies received" 	272
scalar sim.host[4].batteryStats 	nominal 	12420000
attr unit  mW-s
scalar sim.host[4].batteryStats 	total 	8188.24874832
attr unit  mW-s
scalar sim.host[4].batteryStats 	lifetime 	-1
attr unit  s
scalar sim.host[4].batteryStats 	"Mean power consumption" 	545.883249888
attr unit  mW
scalar sim.host[4].batteryStats 	"num devices" 	1
scalar sim.host[4].batteryStats 	"physical layer" 	0
scalar sim.host[4].batteryStats 	"device total (mWs)" 	8188.248744
scalar sim.host[4].batteryStats 	account 	0
scalar sim.host[4].batteryStats 	"energy (mWs)" 	0
scalar sim.host[4].batteryStats 	"time (s)" 	0
scalar sim.host[4].batteryStats 	account 	1
scalar sim.host[4].batteryStats 	"energy (mWs)" 	4455.346272
scalar sim.host[4].batteryStats 	"time (s)" 	8.634392
scalar sim.host[4].batteryStats 	account 	2
scalar sim.host[4].batteryStats 	"energy (mWs)" 	281.462472
scalar sim.host[4].batteryStats 	"time (s)" 	0.613208
scalar sim.host[4].batteryStats 	account 	3
scalar sim.host[4].batteryStats 	"energy (mWs)" 	0
scalar sim.host[4].batteryStats 	"time (s)" 	0
scalar sim.host[4].batteryStats 	account 	4
scalar sim.host[4].batteryStats 	"energy (mWs)" 	3451.44
scalar sim.host[4].batteryStats 	"time (s)" 	5.7524
scalar sim.host[4].appl 	"broadcast queued" 	50
scalar sim.host[4].appl 	"replies sent" 	329
scalar sim.host[4].appl 	"replies received" 	326
scalar sim.host[5].batteryStats 	nominal 	12420000
attr unit  mW-s
scalar sim.host[5].batteryStats 	total 	8178.23705238
attr unit  mW-s
scalar sim.host[5].batteryStats 	lifetime 	-1
attr unit  s
scalar sim.host[5].batteryStats 	"Mean power consumption" 	545.215803492
attr unit  mW
scalar sim.host[5].batteryStats 	"num devices" 	1
scalar sim.host[5].batteryStats 	"physical layer" 	0
scalar sim.host[5].batteryStats 	"device total (mWs)" 	8178.237048
scalar sim.host[5].batteryStats 	account 	0
scalar sim.host[5].batteryStats 	"energy (mWs)" 	0
scalar sim.host[5].batteryStats 	"time (s)" 	0
scalar sim.host[5].batteryStats 	account 	1
scalar sim.host[5].batteryStats 	"energy (mWs)" 	4452.807552
scalar sim.host[5].batteryStats 	"time (s)" 	8.629472
scalar sim.host[5].batteryStats 	account 	2
scalar sim.host[5].batteryStats 	"energy (mWs)" 	315.399096
scalar sim.host[5].batteryStats 	"time (s)" 	0.687144
scalar sim.host[5].batteryStats 	account 	3
scalar sim.host[5].batteryStats 	"energy (mWs)" 	0
scalar sim.host[5].batteryStats 	"time (s)" 	0
scalar sim.host[5].batteryStats 	account 	4
scalar sim.host[5].batteryStats 	"energy (mWs)" 	3410.0304
scalar sim.host[5].batteryStats 	"time (s)" 	5.683384
scalar sim.host[5].appl 	"broadcast queued" 	50
scalar sim.host[5].appl 	"replies sent" 	376
scalar sim.host[5].appl 	"replies received" 	388
scalar sim.host[6].batteryStats 	nominal 	12420000
attr unit  mW-s
scalar sim.host[6].batteryStats 	total 	7998.90304986
attr unit  mW-s
scalar sim.host[6].batteryStats 	lifetime 	-1
attr unit  s
scalar sim.host[6].batteryStats 	"Mean power consumption" 	533.260203324
attr unit  mW
scalar sim.host[6].batteryStats 	"num devices" 	1
scalar sim.host[6].batteryStats 	"physical layer" 	0
scalar sim.host[6].batteryStats 	"device total (mWs)" 	7998.903048
scalar sim.host[6].batteryStats 	account 	0
scalar sim.host[6].batteryStats 	"energy (mWs)" 	0
scalar sim.host[6].batteryStats 	"time (s)" 	0
scalar sim.host[6].batteryStats 	account 	1
scalar sim.host[6].batteryStats 	"energy (mWs)" 	6031.474464
scalar sim.host[6].batteryStats 	"time (s)" 	11.688904
scalar sim.host[6].batteryStats 	account 	2
scalar sim.host[6].batteryStats 	"energy (mWs)" 	62.596584
scalar sim.host[6].batteryStats 	"time (s)" 	0.136376
scalar sim.host[6].batteryStats 	account 	3
scalar sim.host[6].batteryStats 	"energy (mWs)" 	0
scalar sim.host[6].batteryStats 	"time (s)" 	0
scalar sim.host[6].batteryStats 	account 	4
scalar sim.host[6].batteryStats 	"energy (mWs)" 	1904.832
scalar sim.host[6].batteryStats 	"time (s)" 	3.17472
scalar sim.host[6].appl 	"broadcast queued" 	50
scalar sim.host[6].appl 	"replies sent" 	49
scalar sim.host[6].appl 	"replies received" 	51
scalar sim.host[7].batteryStats 	nominal 	12420000
attr unit  mW-s
scalar sim.host[7].batteryStats 	total 	8202.9041563
attr unit  mW-s
scalar sim.host[7].batteryStats 	lifetime 	-1
attr unit  s
scalar sim.host[7].batteryStats 	"Mean power consumption" 	546.860277086
attr unit  mW
scalar sim.host[7].batteryStats 	"num devices" 	1
scalar sim.host[7].batteryStats 	"physical layer" 	0
scalar sim.host[7].batteryStats 	"device total (mWs)" 	8202.904152
scalar sim.host[7].batteryStats 	account 	0
scalar sim.host[7].batteryStats 	"energy (mWs)" 	0
scalar sim.host[7].batteryStats 	"time (s)" 	0
scalar sim.host[7].batteryStats 	account 	1
scalar sim.host[7].batteryStats 	"energy (mWs)" 	4439.614464
scalar sim.host[7].batteryStats 	"time (s)" 	8.603904
scalar sim.host[7].batteryStats 	account 	2
scalar sim.host[7].batteryStats 	"energy (mWs)" 	242.091288
scalar sim.host[7].batteryStats 	"time (s)" 	0.527432
scalar sim.host[7].batteryStats 	account 	3
scalar sim.host[7].batteryStats 	"energy (mWs)" 	0
scalar sim.host[7].batteryStats 	"time (s)" 	0
scalar sim.host[7].batteryStats 	account 	4
scalar sim.host[7].batteryStats 	"energy (mWs)" 	3521.1984
scalar sim.host[7].batteryStats 	"time (s)" 	5.868664
scalar sim.host[7].appl 	"broadcast queued" 	50
scalar sim.host[7].appl 	"replies sent" 	294
scalar sim.host[7].appl 	"replies received" 	258
scalar sim.host[8].batteryStats 	nominal 	12420000
attr unit  mW-s
scalar sim.host[8].batteryStats 	total 	8053.03013081
attr unit  mW-s
scalar sim.host[8].batteryStats 	lifetime 	-1
attr unit  s
scalar sim.host[8].batteryStats 	"Mean power consumption" 	536.868675387
attr unit  mW
scalar sim.host[8].batteryStats 	"num devices" 	1
scalar sim.host[8].batteryStats 	"physical layer" 	0
scalar sim.host[8].batteryStats 	"device total (mWs)" 	8053.030128
scalar sim.host[8].batteryStats 	account 	0
scalar sim.host[8].batteryStats 	"energy (mWs)" 	0
scalar sim.host[8].batteryStats 	"time (s)" 	0
scalar sim.host[8].batteryStats 	account 	1
scalar sim.host[8].batteryStats 	"energy (mWs)" 	5589.506016
scalar sim.host[8].batteryStats 	"time (s)" 	10.832376
scalar sim.host[8].batteryStats 	account 	2
scalar sim.host[8].batteryStats 	"energy (mWs)" 	120.610512
scalar sim.host[8].batteryStats 	"time (s)" 	0.262768
scalar sim.host[8].batteryStats 	account 	3
scalar sim.host[8].batteryStats 	"energy (mWs)" 	0
scalar sim.host[8].batteryStats 	"time (s)" 	0
scalar sim.host[8].batteryStats 	account 	4
scalar sim.host[8].batteryStats 	"energy (mWs)" 	2342.9136
scalar sim.host[8].batteryStats 	"time (s)" 	3.904856
scalar sim.host[8].appl 	"broadcast queued" 	50
scalar sim.host[8].appl 	"replies sent" 	139
scalar sim.host[8].appl 	"replies received" 	82
scalar sim.host[9].batteryStats 	nominal 	12420000
attr unit  mW-s
scalar sim.host[9].batteryStats 	total 	8302.48610911
attr unit  mW-s
scalar sim.host[9].batteryStats 	lifetime 	-1
attr unit  s
scalar sim.host[9].batteryStats 	"Mean power consumption" 	553.499073941
attr unit  mW
scalar sim.host[9].batteryStats 	"num devices" 	1
scalar sim.host[9].batteryStats 	"physical layer" 	0
scalar sim.host[9].batteryStats 	"device total (mWs)" 	8302.486104
scalar sim.host[9].batteryStats 	account 	0
scalar sim.host[9].batteryStats 	"energy (mWs)" 	0
scalar sim.host[9].batteryStats 	"time (s)" 	0
scalar sim.host[9].batteryStats 	account 	1
scalar sim.host[9].batteryStats 	"energy (mWs)" 	3790.119072
scalar sim.host[9].batteryStats 	"time (s)" 	7.345192
scalar sim.host[9].batteryStats 	account 	2
scalar sim.host[9].batteryStats 	"energy (mWs)" 	262.111032
scalar sim.host[9].batteryStats 	"time (s)" 	0.571048
scalar sim.host[9].batteryStats 	account 	3
scalar sim.host[9].batteryStats 	"energy (mWs)" 	0
scalar sim.host[9].batteryStats 	"time (s)" 	0
scalar sim.host[9].batteryStats 	account 	4
scalar sim.host[9].batteryStats 	"energy (mWs)" 	4250.256
scalar sim.host[9].batteryStats 	"time (s)" 	7.08376
scalar sim.host[9].appl 	"broadcast queued" 	50
scalar sim.host[9].appl 	"replies sent" 	262
scalar sim.host[9].appl 	"replies received" 	395
scalar sim.host[10].batteryStats 	nominal 	12420000
attr unit  mW-s
scalar sim.host[10].batteryStats 	total 	8157.65227602
attr unit  mW-s
scalar sim.host[10].batteryStats 	lifetime 	-1
attr unit  s
scalar sim.host[10].batteryStats 	"Mean power consumption" 	543.843485068
attr unit  mW
scalar sim.host[10].batteryStats 	"num devices" 	1
scalar sim.host[10].batteryStats 	"physical layer" 	0
scalar sim.host[10].batteryStats 	"device total (mWs)" 	8157.652272
scalar sim.host[10].batteryStats 	account 	0
scalar sim.host[10].batteryStats 	"energy (mWs)" 	0
scalar sim.host[10].batteryStats 	"time (s)" 	0
scalar sim.host[10].batteryStats 	account 	1
scalar sim.host[10].batteryStats 	"energy (mWs)" 	4700.454528
scalar sim.host[10].batteryStats 	"time (s)" 	9.109408
scalar sim.host[10].batteryStats 	account 	2
scalar sim.host[10].batteryStats 	"energy (mWs)" 	251.172144
scalar sim.host[10].batteryStats 	"time (s)" 	0.547216
scalar sim.host[10].batteryStats 	account 	3
scalar sim.host[10].batteryStats 	"energy (mWs)" 	0
scalar sim.host[10].batteryStats 	"time (s)" 	0
scalar sim.host[10].batteryStats 	account 	4
scalar sim.host[10].batteryStats 	"energy (mWs)" 	3206.0256
scalar sim.host[10].batteryStats 	"time (s)" 	5.343376
scalar sim.host[10].appl 	"broadcast queued" 	50
scalar sim.host[10].appl 	"replies sent" 	301
scalar sim.host[10].appl 	"replies received" 	293
scalar sim.host[11].batteryStats 	nominal 	12420000
attr unit  mW-s
scalar sim.host[11].batteryStats 	total 	8178.17249239
attr unit  mW-s
scalar sim.host[11].batteryStats 	lifetime 	-1
attr unit  s
scalar sim.host[11].batteryStats 	"Mean power consumption" 	545.211499493
attr unit  mW
scalar sim.host[11].batteryStats 	"num devices" 	1
scalar sim.host[11].batteryStats 	"physical layer" 	0
scalar sim.host[11].batteryStats 	"device total (mWs)" 	8178.172488
scalar sim.host[11].batteryStats 	account 	0
scalar sim.host[11].batteryStats 	"energy (mWs)" 	0
scalar sim.host[11].batteryStats 	"time (s)" 	0
scalar sim.host[11].batteryStats 	account 	1
scalar sim.host[11].batteryStats 	"energy (mWs)" 	4452.580512
scalar sim.host[11].batteryStats 	"time (s)" 	8.629032
scalar sim.host[11].batteryStats 	account 	2
scalar sim.host[11].batteryStats 	"energy (mWs)" 	315.729576
scalar sim.host[11].batteryStats 	"time (s)" 	0.687864
scalar sim.host[11].batteryStats 	account 	3
scalar sim.host[11].batteryStats 	"energy (mWs)" 	0
scalar sim.host[11].batteryStats 	"time (s)" 	0
scalar sim.host[11].batteryStats 	account 	4
scalar sim.host[11].batteryStats 	"energy (mWs)" 	3409.8624
scalar sim.host[11].batteryStats 	"time (s)" 	5.683104
scalar sim.host[11].appl 	"broadcast queued" 	50
scalar sim.host[11].appl 	"replies sent" 	384
scalar sim.host[11].appl 	"replies received" 	355
scalar sim.host[12].batteryStats 	nominal 	12420000
attr unit  mW-s
scalar sim.host[12].batteryStats 	total 	8062.34460358
attr unit  mW-s
scalar sim.host[12].batteryStats 	lifetime 	-1
attr unit  s
scalar sim.host[12].batteryStats 	"Mean power consumption" 	537.489640239
attr unit  mW
scalar sim.host[12].batteryStats 	"num devices" 	1
scalar sim.host[12].batteryStats 	"physical layer" 	0
scalar sim.host[12].batteryStats 	"device total (mWs)" 	8062.3446
scalar sim.host[12].batteryStats 	account 	0
scalar sim.host[12].batteryStats 	"energy (mWs)" 	0
scalar sim.host[12].batteryStats 	"time (s)" 	0
scalar sim.host[12].batteryStats 	account 	1
scalar sim.host[12].batteryStats 	"energy (mWs)" 	5205.267648
scalar sim.host[12].batteryStats 	"time (s)" 	10.087728
scalar sim.host[12].batteryStats 	account 	2
scalar sim.host[12].batteryStats 	"energy (mWs)" 	293.910552
scalar sim.host[12].batteryStats 	"time (s)" 	0.640328
scalar sim.host[12].batteryStats 	account 	3
scalar sim.host[12].batteryStats 	"energy (mWs)" 	0
scalar sim.host[12].batteryStats 	"time (s)" 	0
scalar sim.host[12].batteryStats 	account 	4
scalar sim.host[12].batteryStats 	"energy (mWs)" 	2563.1664
scalar sim.host[12].batteryStats 	"time (s)" 	4.271944
scalar sim.host[12].appl 	"broadcast queued" 	50
scalar sim.host[12].appl 	"replies sent" 	341
scalar sim.host[12].appl 	"replies received" 	332
scalar sim.host[13].batteryStats 	nominal 	12420000
attr unit  mW-s
scalar sim.host[13].batteryStats 	total 	8148.26443609
attr unit  mW-s
scalar sim.host[13].batteryStats 	lifetime 	-1
attr unit  s
scalar sim.host[13].batteryStats 	"Mean power consumption" 	543.217629072
attr unit  mW
scalar sim.host[13].batteryStats 	"num devices" 	1
scalar sim.host[13].batteryStats 	"physical layer" 	0
scalar sim.host[13].batteryStats 	"device total (mWs)" 	8148.264432
scalar sim.host[13].batteryStats 	account 	0
scalar sim.host[13].batteryStats 	"energy (mWs)" 	0
scalar sim.host[13].batteryStats 	"time (s)" 	0
scalar sim.host[13].batteryStats 	account 	1
scalar sim.host[13].batteryStats 	"energy (mWs)" 	4699.529856
scalar sim.host[13].batteryStats 	"time (s)" 	9.107616
scalar sim.host[13].batteryStats 	account 	2
scalar sim.host[13].batteryStats 	"energy (mWs)" 	282.222576
scalar sim.host[13].batteryStats 	"time (s)" 	0.614864
scalar sim.host[13].batteryStats 	account 	3
scalar sim.host[13].batteryStats 	"energy (mWs)" 	0
scalar sim.host[13].batteryStats 	"time (s)" 	0
scalar sim.host[13].batteryStats 	account 	4
scalar sim.host[13].batteryStats 	"energy (mWs)" 	3166.512
scalar sim.host[13].batteryStats 	"time (s)" 	5.27752
scalar sim.host[13].appl 	"broadcast queued" 	50
scalar sim.host[13].appl 	"replies sent" 	310
scalar sim.host[13].appl 	"replies received" 	332
scalar sim.host[14].batteryStats 	nominal 	12420000
attr unit  mW-s
scalar sim.host[14].batteryStats 	total 	8190.54806717
attr unit  mW-s
scalar sim.host[14].batteryStats 	lifetime 	-1
attr unit  s
scalar sim.host[14].batteryStats 	"Mean power consumption" 	546.036537812
attr unit  mW
scalar sim.host[14].batteryStats 	"num devices" 	1
scalar sim.host[14].batteryStats 	"physical layer" 	0
scalar sim.host[14].batteryStats 	"device total (mWs)" 	8190.548064
scalar sim.host[14].batteryStats 	account 	0
scalar sim.host[14].batteryStats 	"energy (mWs)" 	0
scalar sim.host[14].batteryStats 	"time (s)" 	0
scalar sim.host[14].batteryStats 	account 	1
scalar sim.host[14].batteryStats 	"energy (mWs)" 	4869.186528
scalar sim.host[14].batteryStats 	"time (s)" 	9.436408
scalar sim.host[14].batteryStats 	account 	2
scalar sim.host[14].batteryStats 	"energy (mWs)" 	54.668736
scalar sim.host[14].batteryStats 	"time (s)" 	0.119104
scalar sim.host[14].batteryStats 	account 	3
scalar sim.host[14].batteryStats 	"energy (mWs)" 	0
scalar sim.host[14].batteryStats 	"time (s)" 	0
scalar sim.host[14].batteryStats 	account 	4
scalar sim.host[14].batteryStats 	"energy (mWs)" 	3266.6928
scalar sim.host[14].batteryStats 	"time (s)" 	5.444488
scalar sim.host[14].appl 	"broadcast queued" 	50
scalar sim.host[14].appl 	"replies sent" 	52
scalar sim.host[14].appl 	"replies received" 	26
scalar sim.host[15].batteryStats 	nominal 	12420000
attr unit  mW-s
scalar sim.host[15].batteryStats 	total 	8067.61639556
attr unit  mW-s
scalar sim.host[15].batteryStats 	lifetime 	-1
attr unit  s
scalar sim.host[15].batteryStats 	"Mean power consumption" 	537.841093037
attr unit  mW
scalar sim.host[15].batteryStats 	"num devices" 	1
scalar sim.host[15].batteryStats 	"physical layer" 	0
scalar sim.host[15].batteryStats 	"device total (mWs)" 	8067.616392
scalar sim.host[15].batteryStats 	account 	0
scalar sim.host[15].batteryStats 	"energy (mWs)" 	0
scalar sim.host[15].batteryStats 	"time (s)" 	0
scalar sim.host[15].batteryStats 	account 	1
scalar sim.host[15].batteryStats 	"energy (mWs)" 	5206.795008
scalar sim.host[15].batteryStats 	"time (s)" 	10.090688
scalar sim.host[15].batteryStats 	account 	2
scalar sim.host[15].batteryStats 	"energy (mWs)" 	275.939784
scalar sim.host[15].batteryStats 	"time (s)" 	0.601176
scalar sim.host[15].batteryStats 	account 	3
scalar sim.host[15].batteryStats 	"energy (mWs)" 	0
scalar sim.host[15].batteryStats 	"time (s)" 	0
scalar sim.host[15].batteryStats 	account 	4
scalar sim.host[15].batteryStats 	"energy (mWs)" 	2584.8816
scalar sim.host[15].batteryStats 	"time (s)" 	4.308136
scalar sim.host[15].appl 	"broadcast queued" 	50
scalar sim.host[15].appl 	"replies sent" 	331
scalar sim.host[15].appl 	"replies received" 	279
scalar sim.host[16].batteryStats 	nominal 	12420000
attr unit  mW-s
scalar sim.host[16].batteryStats 	total 	8065.09742748
attr unit  mW-s
scalar sim.host[16].batteryStats 	lifetime 	-1
attr unit  s
scalar sim.host[16].batteryStats 	"Mean power consumption" 	537.673161832
attr unit  mW
scalar sim.host[16].batteryStats 	"num devices" 	1
scalar sim.host[16].batteryStats 	"physical layer" 	0
scalar sim.host[16].batteryStats 	"device total (mWs)" 	8065.097424
scalar sim.host[16].batteryStats 	account 	0
scalar sim.host[16].batteryStats 	"energy (mWs)" 	0
scalar sim.host[16].batteryStats 	"time (s)" 	0
scalar sim.host[16].batteryStats 	account 	1
scalar sim.host[16].batteryStats 	"energy (mWs)" 	5253.040992
scalar sim.host[16].batteryStats 	"time (s)" 	10.180312
scalar sim.host[16].batteryStats 	account 	2
scalar sim.host[16].batteryStats 	"energy (mWs)" 	259.632432
scalar sim.host[16].batteryStats 	"time (s)" 	0.565648
scalar sim.host[16].batteryStats 	account 	3
scalar sim.host[16].batteryStats 	"energy (mWs)" 	0
scalar sim.host[16].batteryStats 	"time (s)" 	0
scalar sim.host[16].batteryStats 	account 	4
scalar sim.host[16].batteryStats 	"energy (mWs)" 	2552.424
scalar sim.host[16].batteryStats 	"time (s)" 	4.25404
scalar sim.host[16].appl 	"broadcast queued" 	50
scalar sim.host[16].appl 	"replies sent" 	295
scalar sim.host[16].appl 	"replies received" 	288
scalar sim.host[17].batteryStats 	nominal 	12420000
attr unit  mW-s
scalar sim.host[17].batteryStats 	total 	8301.16267713
attr unit  mW-s
scalar sim.host[17].batteryStats 	lifetime 	-1
attr unit  s
scalar sim.host[17].batteryStats 	"Mean power consumption" 	553.410845142
attr unit  mW
scalar sim.host[17].batteryStats 	"num devices" 	1
scalar sim.host[17].batteryStats 	"physical layer" 	0
scalar sim.host[17].batteryStats 	"device total (mWs)" 	8301.162672
scalar sim.host[17].batteryStats 	account 	0
scalar sim.host[17].batteryStats 	"energy (mWs)" 	0
scalar sim.host[17].batteryStats 	"time (s)" 	0
scalar sim.host[17].batteryStats 	account 	1
scalar sim.host[17].batteryStats 	"energy (mWs)" 	3789.677376
scalar sim.host[17].batteryStats 	"time (s)" 	7.344336
scalar sim.host[17].batteryStats 	account 	2
scalar sim.host[17].batteryStats 	"energy (mWs)" 	266.653296
scalar sim.host[17].batteryStats 	"time (s)" 	0.580944
scalar sim.host[17].batteryStats 	account 	3
scalar sim.host[17].batteryStats 	"energy (mWs)" 	0
scalar sim.host[17].batteryStats 	"time (s)" 	0
scalar sim.host[17].batteryStats 	account 	4
scalar sim.host[17].batteryStats 	"energy (mWs)" 	4244.832
scalar sim.host[17].batteryStats 	"time (s)" 	7.07472
scalar sim.host[17].appl 	"broadcast queued" 	50
scalar sim.host[17].appl 	"replies sent" 	259
scalar sim.host[17].appl 	"replies received" 	353
scalar sim.host[18].batteryStats 	nominal 	12420000
attr unit  mW-s
scalar sim.host[18].batteryStats 	total 	8155.85986004
attr unit  mW-s
scalar sim.host[18].batteryStats 	lifetime 	-1
attr unit  s
scalar sim.host[18].batteryStats 	"Mean power consumption" 	543.723990669
attr unit  mW
scalar sim.host[18].batteryStats 	"num devices" 	1
scalar sim.host[18].batteryStats 	"physical layer" 	0
scalar sim.host[18].batteryStats 	"device total (mWs)" 	8155.859856
scalar sim.host[18].batteryStats 	account 	0
scalar sim.host[18].batteryStats 	"energy (mWs)" 	0
scalar sim.host[18].batteryStats 	"time (s)" 	0
scalar sim.host[18].batteryStats 	account 	1
scalar sim.host[18].batteryStats 	"energy (mWs)" 	4700.433888
scalar sim.host[18].batteryStats 	"time (s)" 	9.109368
scalar sim.host[18].batteryStats 	account 	2
scalar sim.host[18].batteryStats 	"energy (mWs)" 	257.017968
scalar sim.host[18].batteryStats 	"time (s)" 	0.559952
scalar sim.host[18].batteryStats 	account 	3
scalar sim.host[18].batteryStats 	"energy (mWs)" 	0
scalar sim.host[18].batteryStats 	"time (s)" 	0
scalar sim.host[18].batteryStats 	account 	4
scalar sim.host[18].batteryStats 	"energy (mWs)" 	3198.408
scalar sim.host[18].batteryStats 	"time (s)" 	5.33068
scalar sim.host[18].appl 	"broadcast queued" 	50
scalar sim.host[18].appl 	"replies sent" 	303
scalar sim.host[18].appl 	"replies received" 	297
scalar sim.host[19].batteryStats 	nominal 	12420000
attr unit  mW-s
scalar sim.host[19].batteryStats 	total 	8152.49275607
attr unit  mW-s
scalar sim.host[19].batteryStats 	lifetime 	-1
attr unit  s
scalar sim.host[19].batteryStats 	"Mean power consumption" 	543.499517071
attr unit  mW
scalar sim.host[19].batteryStats 	"num devices" 	1
scalar sim.host[19].batteryStats 	"physical layer" 	0
scalar sim.host[19].batteryStats 	"device total (mWs)" 	8152.492752
scalar sim.host[19].batteryStats 	account 	0
scalar sim.host[19].batteryStats 	"energy (mWs)" 	0
scalar sim.host[19].batteryStats 	"time (s)" 	0
scalar sim.host[19].batteryStats 	account 	1
scalar sim.host[19].batteryStats 	"energy (mWs)" 	4699.8312
scalar sim.host[19].batteryStats 	"time (s)" 	9.1082
scalar sim.host[19].batteryStats 	account 	2
scalar sim.host[19].batteryStats 	"energy (mWs)" 	268.298352
scalar sim.host[19].batteryStats 	"time (s)" 	0.584528
scalar sim.host[19].batteryStats 	account 	3
scalar sim.host[19].batteryStats 	"energy (mWs)" 	0
scalar sim.host[19].batteryStats 	"time (s)" 	0
scalar sim.host[19].batteryStats 	account 	4
scalar sim.host[19].batteryStats 	"energy (mWs)" 	3184.3632
scalar sim.host[19].batteryStats 	"time (s)" 	5.307272
scalar sim.host[19].appl 	"broadcast queued" 	50
scalar sim.host[19].appl 	"replies sent" 	323
scalar sim.host[19].appl 	"replies received" 	295
