version 2
run Two-0-20091217-15:09:05-32002
attr configname Two
attr datetime 20091217-15:09:05
attr experiment Two
attr inifile omnetpp.ini
attr iterationvars ""
attr iterationvars2 $repetition=0
attr measurement ""
attr network sim
attr processid 32002
attr repetition 0
attr replication #0
attr resultdir results
attr runnumber 0
attr seedset 0

scalar sim.host[0].batteryStats 	"nominal (mW-s)" 	20000
scalar sim.host[0].batteryStats 	"total (mW-s)" 	50.005136
scalar sim.host[0].batteryStats 	"lifetime(s) (-1 == non-failed)" 	-1
scalar sim.host[0].batteryStats 	"num devices" 	1
scalar sim.host[0].batteryStats 	"physical layer" 	0
scalar sim.host[0].batteryStats 	"device total (mWs)" 	50.005136
scalar sim.host[0].batteryStats 	account 	0
scalar sim.host[0].batteryStats 	"energy (mWs)" 	0
scalar sim.host[0].batteryStats 	"time (s)" 	0
scalar sim.host[0].batteryStats 	account 	1
scalar sim.host[0].batteryStats 	"energy (mWs)" 	49.99572
scalar sim.host[0].batteryStats 	"time (s)" 	9.999144
scalar sim.host[0].batteryStats 	account 	2
scalar sim.host[0].batteryStats 	"energy (mWs)" 	0.009416
scalar sim.host[0].batteryStats 	"time (s)" 	0.000856
scalar sim.host[0].batteryStats 	account 	3
scalar sim.host[0].batteryStats 	"energy (mWs)" 	0
scalar sim.host[0].batteryStats 	"time (s)" 	0
scalar sim.host[0].batteryStats 	account 	4
scalar sim.host[0].batteryStats 	"energy (mWs)" 	0
scalar sim.host[0].batteryStats 	"time (s)" 	0
scalar sim.host[0].appl 	"broadcast queued" 	1
scalar sim.host[0].appl 	"replies sent" 	0
scalar sim.host[0].appl 	"replies received" 	0
scalar sim.host[1].batteryStats 	"nominal (mW-s)" 	20000
scalar sim.host[1].batteryStats 	"total (mW-s)" 	50.005136
scalar sim.host[1].batteryStats 	"lifetime(s) (-1 == non-failed)" 	-1
scalar sim.host[1].batteryStats 	"num devices" 	1
scalar sim.host[1].batteryStats 	"physical layer" 	0
scalar sim.host[1].batteryStats 	"device total (mWs)" 	50.005136
scalar sim.host[1].batteryStats 	account 	0
scalar sim.host[1].batteryStats 	"energy (mWs)" 	0
scalar sim.host[1].batteryStats 	"time (s)" 	0
scalar sim.host[1].batteryStats 	account 	1
scalar sim.host[1].batteryStats 	"energy (mWs)" 	49.99572
scalar sim.host[1].batteryStats 	"time (s)" 	9.999144
scalar sim.host[1].batteryStats 	account 	2
scalar sim.host[1].batteryStats 	"energy (mWs)" 	0.009416
scalar sim.host[1].batteryStats 	"time (s)" 	0.000856
scalar sim.host[1].batteryStats 	account 	3
scalar sim.host[1].batteryStats 	"energy (mWs)" 	0
scalar sim.host[1].batteryStats 	"time (s)" 	0
scalar sim.host[1].batteryStats 	account 	4
scalar sim.host[1].batteryStats 	"energy (mWs)" 	0
scalar sim.host[1].batteryStats 	"time (s)" 	0
scalar sim.host[1].appl 	"broadcast queued" 	1
scalar sim.host[1].appl 	"replies sent" 	0
scalar sim.host[1].appl 	"replies received" 	0
