version 2
run Two-0-20110329-15:17:50-9088
attr configname Two
attr datetime 20110329-15:17:50
attr experiment Two
attr inifile omnetpp.ini
attr iterationvars ""
attr iterationvars2 $repetition=0
attr measurement ""
attr network sim
attr processid 9088
attr repetition 0
attr replication #0
attr resultdir results
attr runnumber 0
attr seedset 0

scalar sim.host[0].batteryStats 	nominal 	20000
attr unit  mW-s
scalar sim.host[0].batteryStats 	total 	50.005136
attr unit  mW-s
scalar sim.host[0].batteryStats 	lifetime 	-1
attr unit  s
scalar sim.host[0].batteryStats 	"Mean power consumption" 	5.0005136
attr unit  mW
scalar sim.host[0].batteryStats 	"num devices" 	1
scalar sim.host[0].batteryStats 	"physical layer" 	0
scalar sim.host[0].batteryStats 	"device total (mWs)" 	50.005136
scalar sim.host[0].batteryStats 	account 	0
scalar sim.host[0].batteryStats 	"energy (mWs)" 	0
scalar sim.host[0].batteryStats 	"time (s)" 	0
scalar sim.host[0].batteryStats 	account 	1
scalar sim.host[0].batteryStats 	"energy (mWs)" 	49.99572
scalar sim.host[0].batteryStats 	"time (s)" 	9.999144
scalar sim.host[0].batteryStats 	account 	2
scalar sim.host[0].batteryStats 	"energy (mWs)" 	0.009416
scalar sim.host[0].batteryStats 	"time (s)" 	0.000856
scalar sim.host[0].batteryStats 	account 	3
scalar sim.host[0].batteryStats 	"energy (mWs)" 	0
scalar sim.host[0].batteryStats 	"time (s)" 	0
scalar sim.host[0].batteryStats 	account 	4
scalar sim.host[0].batteryStats 	"energy (mWs)" 	0
scalar sim.host[0].batteryStats 	"time (s)" 	0
scalar sim.host[0].appl 	"broadcast queued" 	1
scalar sim.host[0].appl 	"replies sent" 	0
scalar sim.host[0].appl 	"replies received" 	0
scalar sim.host[1].batteryStats 	nominal 	20000
attr unit  mW-s
scalar sim.host[1].batteryStats 	total 	50.005136
attr unit  mW-s
scalar sim.host[1].batteryStats 	lifetime 	-1
attr unit  s
scalar sim.host[1].batteryStats 	"Mean power consumption" 	5.0005136
attr unit  mW
scalar sim.host[1].batteryStats 	"num devices" 	1
scalar sim.host[1].batteryStats 	"physical layer" 	0
scalar sim.host[1].batteryStats 	"device total (mWs)" 	50.005136
scalar sim.host[1].batteryStats 	account 	0
scalar sim.host[1].batteryStats 	"energy (mWs)" 	0
scalar sim.host[1].batteryStats 	"time (s)" 	0
scalar sim.host[1].batteryStats 	account 	1
scalar sim.host[1].batteryStats 	"energy (mWs)" 	49.99572
scalar sim.host[1].batteryStats 	"time (s)" 	9.999144
scalar sim.host[1].batteryStats 	account 	2
scalar sim.host[1].batteryStats 	"energy (mWs)" 	0.009416
scalar sim.host[1].batteryStats 	"time (s)" 	0.000856
scalar sim.host[1].batteryStats 	account 	3
scalar sim.host[1].batteryStats 	"energy (mWs)" 	0
scalar sim.host[1].batteryStats 	"time (s)" 	0
scalar sim.host[1].batteryStats 	account 	4
scalar sim.host[1].batteryStats 	"energy (mWs)" 	0
scalar sim.host[1].batteryStats 	"time (s)" 	0
scalar sim.host[1].appl 	"broadcast queued" 	1
scalar sim.host[1].appl 	"replies sent" 	0
scalar sim.host[1].appl 	"replies received" 	0
