version 2
run Four-0-20090817-17:40:30-19127
attr configname Four
attr datetime 20090817-17:40:30
attr experiment Four
attr inifile omnetpp.ini
attr iterationvars ""
attr iterationvars2 $repetition=0
attr measurement ""
attr network sim
attr processid 19127
attr repetition 0
attr replication #0
attr resultdir results
attr runnumber 0
attr seedset 0

scalar sim.host[0].batteryStats 	"nominal (mW-s)" 	10800
scalar sim.host[0].batteryStats 	"total (mW-s)" 	9720
scalar sim.host[0].batteryStats 	"lifetime(s) (-1 == non-failed)" 	-1
scalar sim.host[0].batteryStats 	"num devices" 	2
scalar sim.host[0].batteryStats 	DeviceDutySimple 	0
scalar sim.host[0].batteryStats 	"device total (mWs)" 	6480
scalar sim.host[0].batteryStats 	account 	0
scalar sim.host[0].batteryStats 	"energy (mWs)" 	6480
scalar sim.host[0].batteryStats 	"time (s)" 	1.8
scalar sim.host[0].batteryStats 	DeviceDutySimple 	1
scalar sim.host[0].batteryStats 	"device total (mWs)" 	3240
scalar sim.host[0].batteryStats 	account 	0
scalar sim.host[0].batteryStats 	"energy (mWs)" 	3240
scalar sim.host[0].batteryStats 	"time (s)" 	1.8
