version 2
run Three-0-20100408-14:34:15-4273
attr configname Three
attr datetime 20100408-14:34:15
attr experiment Three
attr inifile omnetpp.ini
attr iterationvars ""
attr iterationvars2 $repetition=0
attr measurement ""
attr network sim
attr processid 4273
attr repetition 0
attr replication #0
attr resultdir results
attr runnumber 0
attr seedset 0

scalar sim.host[0].batteryStats 	nominal 	10800
attr unit  mW-s
scalar sim.host[0].batteryStats 	total 	11070
attr unit  mW-s
scalar sim.host[0].batteryStats 	lifetime 	6.3
attr unit  s
scalar sim.host[0].batteryStats 	"Mean power consumption" 	738
attr unit  mW
scalar sim.host[0].batteryStats 	"num devices" 	2
scalar sim.host[0].batteryStats 	DeviceDutySimple 	0
scalar sim.host[0].batteryStats 	"device total (mWs)" 	7560
scalar sim.host[0].batteryStats 	account 	0
scalar sim.host[0].batteryStats 	"energy (mWs)" 	7560
scalar sim.host[0].batteryStats 	"time (s)" 	2.1
scalar sim.host[0].batteryStats 	DeviceDutySimple 	1
scalar sim.host[0].batteryStats 	"device total (mWs)" 	3510
scalar sim.host[0].batteryStats 	account 	0
scalar sim.host[0].batteryStats 	"energy (mWs)" 	3510
scalar sim.host[0].batteryStats 	"time (s)" 	1.95
