version 2
run Three-0-20090826-15:46:29-14782
attr configname Three
attr datetime 20090826-15:46:29
attr experiment Three
attr inifile omnetpp.ini
attr iterationvars ""
attr iterationvars2 $repetition=0
attr measurement ""
attr network sim
attr processid 14782
attr repetition 0
attr replication #0
attr resultdir results
attr runnumber 0
attr seedset 0

scalar sim.host[0].batteryStats 	"nominal (mW-s)" 	10800
scalar sim.host[0].batteryStats 	"total (mW-s)" 	11070
scalar sim.host[0].batteryStats 	"lifetime(s) (-1 == non-failed)" 	6.3
scalar sim.host[0].batteryStats 	"num devices" 	2
scalar sim.host[0].batteryStats 	DeviceDutySimple 	0
scalar sim.host[0].batteryStats 	"device total (mWs)" 	7560
scalar sim.host[0].batteryStats 	account 	0
scalar sim.host[0].batteryStats 	"energy (mWs)" 	7560
scalar sim.host[0].batteryStats 	"time (s)" 	2.1
scalar sim.host[0].batteryStats 	DeviceDutySimple 	1
scalar sim.host[0].batteryStats 	"device total (mWs)" 	3510
scalar sim.host[0].batteryStats 	account 	0
scalar sim.host[0].batteryStats 	"energy (mWs)" 	3510
scalar sim.host[0].batteryStats 	"time (s)" 	1.95
