version 2
run Two-0-20100408-14:34:15-4272
attr configname Two
attr datetime 20100408-14:34:15
attr experiment Two
attr inifile omnetpp.ini
attr iterationvars ""
attr iterationvars2 $repetition=0
attr measurement ""
attr network sim
attr processid 4272
attr repetition 0
attr replication #0
attr resultdir results
attr runnumber 0
attr seedset 0

scalar sim.host[0].batteryStats 	nominal 	10800
attr unit  mW-s
scalar sim.host[0].batteryStats 	total 	9900
attr unit  mW-s
scalar sim.host[0].batteryStats 	lifetime 	-1
attr unit  s
scalar sim.host[0].batteryStats 	"Mean power consumption" 	1650
attr unit  mW
scalar sim.host[0].batteryStats 	"num devices" 	2
scalar sim.host[0].batteryStats 	DeviceDutySimple 	0
scalar sim.host[0].batteryStats 	"device total (mWs)" 	6660
scalar sim.host[0].batteryStats 	account 	0
scalar sim.host[0].batteryStats 	"energy (mWs)" 	6660
scalar sim.host[0].batteryStats 	"time (s)" 	1.8
scalar sim.host[0].batteryStats 	DeviceDutySimple 	1
scalar sim.host[0].batteryStats 	"device total (mWs)" 	3240
scalar sim.host[0].batteryStats 	account 	0
scalar sim.host[0].batteryStats 	"energy (mWs)" 	3240
scalar sim.host[0].batteryStats 	"time (s)" 	0.9
