version 2
run Two-0-20090826-15:46:29-14781
attr configname Two
attr datetime 20090826-15:46:29
attr experiment Two
attr inifile omnetpp.ini
attr iterationvars ""
attr iterationvars2 $repetition=0
attr measurement ""
attr network sim
attr processid 14781
attr repetition 0
attr replication #0
attr resultdir results
attr runnumber 0
attr seedset 0

scalar sim.host[0].batteryStats 	"nominal (mW-s)" 	10800
scalar sim.host[0].batteryStats 	"total (mW-s)" 	9900
scalar sim.host[0].batteryStats 	"lifetime(s) (-1 == non-failed)" 	-1
scalar sim.host[0].batteryStats 	"num devices" 	2
scalar sim.host[0].batteryStats 	DeviceDutySimple 	0
scalar sim.host[0].batteryStats 	"device total (mWs)" 	6660
scalar sim.host[0].batteryStats 	account 	0
scalar sim.host[0].batteryStats 	"energy (mWs)" 	6660
scalar sim.host[0].batteryStats 	"time (s)" 	1.8
scalar sim.host[0].batteryStats 	DeviceDutySimple 	1
scalar sim.host[0].batteryStats 	"device total (mWs)" 	3240
scalar sim.host[0].batteryStats 	account 	0
scalar sim.host[0].batteryStats 	"energy (mWs)" 	3240
scalar sim.host[0].batteryStats 	"time (s)" 	0.9
