version 2
run One-0-20100408-14:34:16-4281
attr configname One
attr datetime 20100408-14:34:16
attr experiment One
attr inifile omnetpp.ini
attr iterationvars ""
attr iterationvars2 $repetition=0
attr measurement ""
attr network sim
attr processid 4281
attr repetition 0
attr replication #0
attr resultdir results
attr runnumber 0
attr seedset 0

scalar sim.host[0].batteryStats 	nominal 	10800
attr unit  mW-s
scalar sim.host[0].batteryStats 	total 	10815
attr unit  mW-s
scalar sim.host[0].batteryStats 	lifetime 	3.05
attr unit  s
scalar sim.host[0].batteryStats 	"Mean power consumption" 	1081.5
attr unit  mW
scalar sim.host[0].batteryStats 	"num devices" 	3
scalar sim.host[0].batteryStats 	DeviceDutySimple 	0
scalar sim.host[0].batteryStats 	"device total (mWs)" 	3660
scalar sim.host[0].batteryStats 	account 	0
scalar sim.host[0].batteryStats 	"energy (mWs)" 	3660
scalar sim.host[0].batteryStats 	"time (s)" 	0.86
scalar sim.host[0].batteryStats 	DeviceDuty 	1
scalar sim.host[0].batteryStats 	"device total (mWs)" 	4995
scalar sim.host[0].batteryStats 	account 	0
scalar sim.host[0].batteryStats 	"energy (mWs)" 	975
scalar sim.host[0].batteryStats 	"time (s)" 	0.65
scalar sim.host[0].batteryStats 	account 	1
scalar sim.host[0].batteryStats 	"energy (mWs)" 	3600
scalar sim.host[0].batteryStats 	"time (s)" 	1.2
scalar sim.host[0].batteryStats 	account 	2
scalar sim.host[0].batteryStats 	"energy (mWs)" 	420
scalar sim.host[0].batteryStats 	"time (s)" 	0
scalar sim.host[0].batteryStats 	DeviceDutySimple 	2
scalar sim.host[0].batteryStats 	"device total (mWs)" 	2160
scalar sim.host[0].batteryStats 	account 	0
scalar sim.host[0].batteryStats 	"energy (mWs)" 	2160
scalar sim.host[0].batteryStats 	"time (s)" 	0
