version 2
run One-0-20090817-17:40:30-19134
attr configname One
attr datetime 20090817-17:40:30
attr experiment One
attr inifile omnetpp.ini
attr iterationvars ""
attr iterationvars2 $repetition=0
attr measurement ""
attr network sim
attr processid 19134
attr repetition 0
attr replication #0
attr resultdir results
attr runnumber 0
attr seedset 0

scalar sim.host[0].batteryStats 	"nominal (mW-s)" 	10800
scalar sim.host[0].batteryStats 	"total (mW-s)" 	10815
scalar sim.host[0].batteryStats 	"lifetime(s) (-1 == non-failed)" 	3.05
scalar sim.host[0].batteryStats 	"num devices" 	3
scalar sim.host[0].batteryStats 	DeviceDutySimple 	0
scalar sim.host[0].batteryStats 	"device total (mWs)" 	3660
scalar sim.host[0].batteryStats 	account 	0
scalar sim.host[0].batteryStats 	"energy (mWs)" 	3660
scalar sim.host[0].batteryStats 	"time (s)" 	0.86
scalar sim.host[0].batteryStats 	DeviceDuty 	1
scalar sim.host[0].batteryStats 	"device total (mWs)" 	4995
scalar sim.host[0].batteryStats 	account 	0
scalar sim.host[0].batteryStats 	"energy (mWs)" 	975
scalar sim.host[0].batteryStats 	"time (s)" 	0.65
scalar sim.host[0].batteryStats 	account 	1
scalar sim.host[0].batteryStats 	"energy (mWs)" 	3600
scalar sim.host[0].batteryStats 	"time (s)" 	1.2
scalar sim.host[0].batteryStats 	account 	2
scalar sim.host[0].batteryStats 	"energy (mWs)" 	420
scalar sim.host[0].batteryStats 	"time (s)" 	0
scalar sim.host[0].batteryStats 	DeviceDutySimple 	2
scalar sim.host[0].batteryStats 	"device total (mWs)" 	2160
scalar sim.host[0].batteryStats 	account 	0
scalar sim.host[0].batteryStats 	"energy (mWs)" 	2160
scalar sim.host[0].batteryStats 	"time (s)" 	0
