version 2
run Eleven-0-20100408-14:34:14-4265
attr configname Eleven
attr datetime 20100408-14:34:14
attr experiment Eleven
attr inifile omnetpp.ini
attr iterationvars ""
attr iterationvars2 $repetition=0
attr measurement ""
attr network sim
attr processid 4265
attr repetition 0
attr replication #0
attr resultdir results
attr runnumber 0
attr seedset 0

scalar sim.host[0].subscriber 	HostState::FAILED 	9.3
scalar sim.host[0].batteryStats 	nominal 	10800
attr unit  mW-s
scalar sim.host[0].batteryStats 	total 	10800
attr unit  mW-s
scalar sim.host[0].batteryStats 	lifetime 	9.3
attr unit  s
scalar sim.host[0].batteryStats 	"Mean power consumption" 	720
attr unit  mW
scalar sim.host[0].batteryStats 	"num devices" 	1
scalar sim.host[0].batteryStats 	DeviceDutySimple 	0
scalar sim.host[0].batteryStats 	"device total (mWs)" 	10800
scalar sim.host[0].batteryStats 	account 	0
scalar sim.host[0].batteryStats 	"energy (mWs)" 	10800
scalar sim.host[0].batteryStats 	"time (s)" 	3
