version 2
run Four-0-20100408-14:34:12-4258
attr configname Four
attr datetime 20100408-14:34:12
attr experiment Four
attr inifile omnetpp.ini
attr iterationvars ""
attr iterationvars2 $repetition=0
attr measurement ""
attr network sim
attr processid 4258
attr repetition 0
attr replication #0
attr resultdir results
attr runnumber 0
attr seedset 0

scalar sim.host[0].subscriber 	HostState::FAILED 	7.2
scalar sim.host[0].batteryStats 	nominal 	8100
attr unit  mW-s
scalar sim.host[0].batteryStats 	total 	8340
attr unit  mW-s
scalar sim.host[0].batteryStats 	lifetime 	7.2
attr unit  s
scalar sim.host[0].batteryStats 	"Mean power consumption" 	556
attr unit  mW
scalar sim.host[0].batteryStats 	"num devices" 	1
scalar sim.host[0].batteryStats 	DeviceDutySimple 	0
scalar sim.host[0].batteryStats 	"device total (mWs)" 	8340
scalar sim.host[0].batteryStats 	account 	0
scalar sim.host[0].batteryStats 	"energy (mWs)" 	8340
scalar sim.host[0].batteryStats 	"time (s)" 	2.3
