version 2
run Four-0-20090826-15:15:24-9432
attr configname Four
attr datetime 20090826-15:15:24
attr experiment Four
attr inifile omnetpp.ini
attr iterationvars ""
attr iterationvars2 $repetition=0
attr measurement ""
attr network sim
attr processid 9432
attr repetition 0
attr replication #0
attr resultdir results
attr runnumber 0
attr seedset 0

scalar sim.host[0].subscriber 	HostState::FAILED 	7.2
scalar sim.host[0].batteryStats 	"nominal (mW-s)" 	8100
scalar sim.host[0].batteryStats 	"total (mW-s)" 	8340
scalar sim.host[0].batteryStats 	"lifetime(s) (-1 == non-failed)" 	7.2
scalar sim.host[0].batteryStats 	"num devices" 	1
scalar sim.host[0].batteryStats 	DeviceDutySimple 	0
scalar sim.host[0].batteryStats 	"device total (mWs)" 	8340
scalar sim.host[0].batteryStats 	account 	0
scalar sim.host[0].batteryStats 	"energy (mWs)" 	8340
scalar sim.host[0].batteryStats 	"time (s)" 	2.3
