version 2
run Thirteen-0-20100408-14:34:14-4267
attr configname Thirteen
attr datetime 20100408-14:34:14
attr experiment Thirteen
attr inifile omnetpp.ini
attr iterationvars ""
attr iterationvars2 $repetition=0
attr measurement ""
attr network sim
attr processid 4267
attr repetition 0
attr replication #0
attr resultdir results
attr runnumber 0
attr seedset 0

scalar sim.host[0].subscriber 	HostState::FAILED 	9.3
scalar sim.host[0].batteryStats 	nominal 	10800
attr unit  mW-s
scalar sim.host[0].batteryStats 	total 	10800
attr unit  mW-s
scalar sim.host[0].batteryStats 	lifetime 	9.3
attr unit  s
scalar sim.host[0].batteryStats 	"Mean power consumption" 	720
attr unit  mW
