version 2
run Thirteen-0-20090817-17:40:29-19119
attr configname Thirteen
attr datetime 20090817-17:40:29
attr experiment Thirteen
attr inifile omnetpp.ini
attr iterationvars ""
attr iterationvars2 $repetition=0
attr measurement ""
attr network sim
attr processid 19119
attr repetition 0
attr replication #0
attr resultdir results
attr runnumber 0
attr seedset 0

scalar sim.host[0].subscriber 	HostState::FAILED 	9.3
scalar sim.host[0].batteryStats 	"nominal (mW-s)" 	10800
scalar sim.host[0].batteryStats 	"total (mW-s)" 	10800
scalar sim.host[0].batteryStats 	"lifetime(s) (-1 == non-failed)" 	9.3
